MODEL 1
REMARK VINA RESULT:     -11.1      0.000      0.000
REMARK  Name = 25115190
REMARK  8 active torsions:
REMARK  status: ('A' for Active; 'I' for Inactive)
REMARK    1  A    between atoms: O_2  and  C_20
REMARK    2  A    between atoms: O_2  and  C_26
REMARK    3  A    between atoms: O_3  and  C_25
REMARK    4  A    between atoms: O_3  and  C_27
REMARK    5  A    between atoms: O_7  and  C_24
REMARK    6  A    between atoms: O_7  and  C_37
REMARK    7  A    between atoms: C_23  and  C_25
REMARK    8  A    between atoms: C_38  and  C_41
REMARK                            x       y       z     vdW  Elec       q    Type
REMARK                         _______ _______ _______ _____ _____    ______ ____
ROOT
ATOM      1  O   UNL     1     111.119 128.562 138.031  0.00  0.00    +0.000 OA
ATOM      2  O   UNL     1     108.959 129.761 138.179  0.00  0.00    +0.000 OA
ATOM      3  O   UNL     1     109.025 128.262 137.493  0.00  0.00    +0.000 OA
ATOM      4  C   UNL     1     110.366 129.712 138.424  0.00  0.00    +0.000 C 
ATOM      5  C   UNL     1     109.679 129.362 138.130  0.00  0.00    +0.000 C 
ATOM      6  C   UNL     1     109.712 128.613 137.787  0.00  0.00    +0.000 C 
ATOM      7  C   UNL     1     110.432 128.213 137.737  0.00  0.00    +0.000 C 
ATOM      8  C   UNL     1     111.086 129.312 138.374  0.00  0.00    +0.000 C 
ENDROOT
BRANCH   4   9
ATOM      9  O   UNL     1     110.333 130.461 138.767  0.00  0.00    +0.000 OA
BRANCH   9  14
ATOM     10  O   UNL     1     110.291 131.054 137.467  0.00  0.00    +0.000 OA
ATOM     11  O   UNL     1     110.267 131.960 139.453  0.00  0.00    +0.000 OA
ATOM     12  O   UNL     1     110.190 133.302 138.496  0.00  0.00    +0.000 OA
ATOM     13  O   UNL     1     110.181 133.146 136.854  0.00  0.00    +0.000 OA
ATOM     14  C   UNL     1     110.295 131.132 138.288  0.00  0.00    +0.000 C 
ATOM     15  C   UNL     1     110.262 131.882 138.632  0.00  0.00    +0.000 C 
ATOM     16  C   UNL     1     110.224 132.553 138.153  0.00  0.00    +0.000 C 
ATOM     17  C   UNL     1     110.219 132.474 137.332  0.00  0.00    +0.000 C 
ATOM     18  C   UNL     1     110.252 131.725 136.989  0.00  0.00    +0.000 C 
ENDBRANCH   9  14
ENDBRANCH   4   9
BRANCH   8  19
ATOM     19  O   UNL     1     111.773 129.661 138.668  0.00  0.00    +0.000 OA
BRANCH  19  24
ATOM     20  O   UNL     1     113.669 128.713 139.189  0.00  0.00    +0.000 OA
ATOM     21  O   UNL     1     111.335 128.807 140.010  0.00  0.00    +0.000 OA
ATOM     22  O   UNL     1     111.652 127.914 141.098  0.00  0.00    +0.000 OA
ATOM     23  O   UNL     1     114.380 126.907 141.360  0.00  0.00    +0.000 OA
ATOM     24  C   UNL     1     112.332 129.203 139.066  0.00  0.00    +0.000 A 
ATOM     25  C   UNL     1     113.110 129.172 138.792  0.00  0.00    +0.000 A 
ATOM     26  C   UNL     1     112.113 128.776 139.736  0.00  0.00    +0.000 A 
ATOM     27  C   UNL     1     112.672 128.317 140.134  0.00  0.00    +0.000 A 
ATOM     28  C   UNL     1     113.450 128.286 139.861  0.00  0.00    +0.000 A 
ATOM     29  C   UNL     1     112.432 127.877 140.832  0.00  0.00    +0.000 A 
ATOM     30  C   UNL     1     114.041 127.812 140.266  0.00  0.00    +0.000 A 
ATOM     31  C   UNL     1     113.009 127.397 141.251  0.00  0.00    +0.000 A 
ATOM     32  C   UNL     1     113.819 127.365 140.965  0.00  0.00    +0.000 A 
BRANCH  25  34
ATOM     33  O   UNL     1     113.986 130.880 136.107  0.00  0.00    +0.000 OA
ATOM     34  C   UNL     1     113.329 129.599 138.121  0.00  0.00    +0.000 A 
ATOM     35  C   UNL     1     113.360 129.225 137.386  0.00  0.00    +0.000 A 
ATOM     36  C   UNL     1     113.516 130.400 138.184  0.00  0.00    +0.000 A 
ATOM     37  C   UNL     1     113.580 129.652 136.715  0.00  0.00    +0.000 A 
ATOM     38  C   UNL     1     113.735 130.826 137.513  0.00  0.00    +0.000 A 
ATOM     39  C   UNL     1     113.767 130.452 136.779  0.00  0.00    +0.000 A 
ENDBRANCH  25  34
ENDBRANCH  19  24
ENDBRANCH   8  19
BRANCH   7  40
ATOM     40  C   UNL     1     110.465 127.463 137.394  0.00  0.00    +0.000 C 
BRANCH  40  41
ATOM     41  O   UNL     1     110.824 126.840 137.799  0.00  0.00    +0.000 OA
BRANCH  41  46
ATOM     42  O   UNL     1     110.916 126.093 136.584  0.00  0.00    +0.000 OA
ATOM     43  O   UNL     1     111.307 125.513 138.652  0.00  0.00    +0.000 OA
ATOM     44  O   UNL     1     111.640 124.102 137.864  0.00  0.00    +0.000 OA
ATOM     45  O   UNL     1     111.490 124.018 136.223  0.00  0.00    +0.000 OA
ATOM     46  C   UNL     1     110.991 126.134 137.404  0.00  0.00    +0.000 C 
ATOM     47  C   UNL     1     111.232 125.470 137.831  0.00  0.00    +0.000 C 
ATOM     48  C   UNL     1     111.398 124.765 137.437  0.00  0.00    +0.000 C 
ATOM     49  C   UNL     1     111.323 124.723 136.617  0.00  0.00    +0.000 C 
ATOM     50  C   UNL     1     111.082 125.387 136.191  0.00  0.00    +0.000 C 
ATOM     51  C   UNL     1     111.007 125.345 135.370  0.00  0.00    +0.000 C 
ENDBRANCH  41  46
ENDBRANCH  40  41
ENDBRANCH   7  40
TORSDOF 8
ENDMDL
MODEL 2
REMARK VINA RESULT:     -10.9      1.706      3.706
REMARK  Name = 25115190
REMARK  8 active torsions:
REMARK  status: ('A' for Active; 'I' for Inactive)
REMARK    1  A    between atoms: O_2  and  C_20
REMARK    2  A    between atoms: O_2  and  C_26
REMARK    3  A    between atoms: O_3  and  C_25
REMARK    4  A    between atoms: O_3  and  C_27
REMARK    5  A    between atoms: O_7  and  C_24
REMARK    6  A    between atoms: O_7  and  C_37
REMARK    7  A    between atoms: C_23  and  C_25
REMARK    8  A    between atoms: C_38  and  C_41
REMARK                            x       y       z     vdW  Elec       q    Type
REMARK                         _______ _______ _______ _____ _____    ______ ____
ROOT
ATOM      1  O   UNL     1     112.997 128.071 138.743  0.00  0.00    +0.000 OA
ATOM      2  O   UNL     1     113.538 128.272 141.150  0.00  0.00    +0.000 OA
ATOM      3  O   UNL     1     113.696 126.817 140.387  0.00  0.00    +0.000 OA
ATOM      4  C   UNL     1     113.098 128.866 139.927  0.00  0.00    +0.000 C 
ATOM      5  C   UNL     1     113.358 128.205 140.347  0.00  0.00    +0.000 C 
ATOM      6  C   UNL     1     113.437 127.478 139.967  0.00  0.00    +0.000 C 
ATOM      7  C   UNL     1     113.257 127.411 139.164  0.00  0.00    +0.000 C 
ATOM      8  C   UNL     1     112.918 128.799 139.125  0.00  0.00    +0.000 C 
ENDROOT
BRANCH   4   9
ATOM      9  O   UNL     1     113.019 129.593 140.308  0.00  0.00    +0.000 OA
BRANCH   9  14
ATOM     10  O   UNL     1     114.417 129.847 140.155  0.00  0.00    +0.000 OA
ATOM     11  O   UNL     1     112.906 130.856 141.363  0.00  0.00    +0.000 OA
ATOM     12  O   UNL     1     114.247 131.741 141.738  0.00  0.00    +0.000 OA
ATOM     13  O   UNL     1     115.701 131.363 141.057  0.00  0.00    +0.000 OA
ATOM     14  C   UNL     1     113.690 130.035 140.495  0.00  0.00    +0.000 C 
ATOM     15  C   UNL     1     113.633 130.668 141.023  0.00  0.00    +0.000 C 
ATOM     16  C   UNL     1     114.304 131.110 141.210  0.00  0.00    +0.000 C 
ATOM     17  C   UNL     1     115.031 130.921 140.869  0.00  0.00    +0.000 C 
ATOM     18  C   UNL     1     115.088 130.290 140.342  0.00  0.00    +0.000 C 
ENDBRANCH   9  14
ENDBRANCH   4   9
BRANCH   8  19
ATOM     19  O   UNL     1     112.659 129.459 138.703  0.00  0.00    +0.000 OA
BRANCH  19  24
ATOM     20  O   UNL     1     111.562 129.529 136.818  0.00  0.00    +0.000 OA
ATOM     21  O   UNL     1     111.191 128.872 139.175  0.00  0.00    +0.000 OA
ATOM     22  O   UNL     1     109.829 128.492 138.885  0.00  0.00    +0.000 OA
ATOM     23  O   UNL     1     108.825 128.783 136.159  0.00  0.00    +0.000 OA
ATOM     24  C   UNL     1     112.048 129.385 138.153  0.00  0.00    +0.000 A 
ATOM     25  C   UNL     1     112.173 129.604 137.368  0.00  0.00    +0.000 A 
ATOM     26  C   UNL     1     111.315 129.091 138.389  0.00  0.00    +0.000 A 
ATOM     27  C   UNL     1     110.705 129.016 137.839  0.00  0.00    +0.000 A 
ATOM     28  C   UNL     1     110.827 129.235 137.054  0.00  0.00    +0.000 A 
ATOM     29  C   UNL     1     109.944 128.709 138.097  0.00  0.00    +0.000 A 
ATOM     30  C   UNL     1     110.200 129.162 136.472  0.00  0.00    +0.000 A 
ATOM     31  C   UNL     1     109.304 128.629 137.529  0.00  0.00    +0.000 A 
ATOM     32  C   UNL     1     109.434 128.857 136.711  0.00  0.00    +0.000 A 
BRANCH  25  34
ATOM     33  O   UNL     1     115.108 130.779 136.424  0.00  0.00    +0.000 OA
ATOM     34  C   UNL     1     112.906 129.897 137.132  0.00  0.00    +0.000 A 
ATOM     35  C   UNL     1     113.100 130.686 137.275  0.00  0.00    +0.000 A 
ATOM     36  C   UNL     1     113.447 129.402 136.753  0.00  0.00    +0.000 A 
ATOM     37  C   UNL     1     113.834 130.981 137.039  0.00  0.00    +0.000 A 
ATOM     38  C   UNL     1     114.180 129.696 136.517  0.00  0.00    +0.000 A 
ATOM     39  C   UNL     1     114.374 130.485 136.660  0.00  0.00    +0.000 A 
ENDBRANCH  25  34
ENDBRANCH  19  24
ENDBRANCH   8  19
BRANCH   7  40
ATOM     40  C   UNL     1     113.336 126.684 138.782  0.00  0.00    +0.000 C 
BRANCH  40  41
ATOM     41  O   UNL     1     112.684 126.340 138.411  0.00  0.00    +0.000 OA
BRANCH  41  46
ATOM     42  O   UNL     1     113.552 125.483 137.668  0.00  0.00    +0.000 OA
ATOM     43  O   UNL     1     111.376 125.514 137.838  0.00  0.00    +0.000 OA
ATOM     44  O   UNL     1     111.590 124.243 136.808  0.00  0.00    +0.000 OA
ATOM     45  O   UNL     1     113.112 123.798 136.351  0.00  0.00    +0.000 OA
ATOM     46  C   UNL     1     112.791 125.704 137.896  0.00  0.00    +0.000 C 
ATOM     47  C   UNL     1     112.137 125.291 137.609  0.00  0.00    +0.000 C 
ATOM     48  C   UNL     1     112.244 124.656 137.095  0.00  0.00    +0.000 C 
ATOM     49  C   UNL     1     113.004 124.434 136.866  0.00  0.00    +0.000 C 
ATOM     50  C   UNL     1     113.658 124.847 137.153  0.00  0.00    +0.000 C 
ATOM     51  C   UNL     1     114.420 124.625 136.924  0.00  0.00    +0.000 C 
ENDBRANCH  41  46
ENDBRANCH  40  41
ENDBRANCH   7  40
TORSDOF 8
ENDMDL
MODEL 3
REMARK VINA RESULT:     -10.7      1.864      4.899
REMARK  Name = 25115190
REMARK  8 active torsions:
REMARK  status: ('A' for Active; 'I' for Inactive)
REMARK    1  A    between atoms: O_2  and  C_20
REMARK    2  A    between atoms: O_2  and  C_26
REMARK    3  A    between atoms: O_3  and  C_25
REMARK    4  A    between atoms: O_3  and  C_27
REMARK    5  A    between atoms: O_7  and  C_24
REMARK    6  A    between atoms: O_7  and  C_37
REMARK    7  A    between atoms: C_23  and  C_25
REMARK    8  A    between atoms: C_38  and  C_41
REMARK                            x       y       z     vdW  Elec       q    Type
REMARK                         _______ _______ _______ _____ _____    ______ ____
ROOT
ATOM      1  O   UNL     1     111.379 128.023 139.311  0.00  0.00    +0.000 OA
ATOM      2  O   UNL     1     111.035 125.581 139.516  0.00  0.00    +0.000 OA
ATOM      3  O   UNL     1     110.037 126.624 140.315  0.00  0.00    +0.000 OA
ATOM      4  C   UNL     1     111.763 126.687 138.980  0.00  0.00    +0.000 C 
ATOM      5  C   UNL     1     111.150 126.395 139.447  0.00  0.00    +0.000 C 
ATOM      6  C   UNL     1     110.651 126.916 139.847  0.00  0.00    +0.000 C 
ATOM      7  C   UNL     1     110.765 127.730 139.779  0.00  0.00    +0.000 C 
ATOM      8  C   UNL     1     111.878 127.501 138.911  0.00  0.00    +0.000 C 
ENDROOT
BRANCH   4   9
ATOM      9  O   UNL     1     112.262 126.166 138.580  0.00  0.00    +0.000 OA
BRANCH   9  14
ATOM     10  O   UNL     1     111.242 125.935 137.606  0.00  0.00    +0.000 OA
ATOM     11  O   UNL     1     113.248 125.097 137.800  0.00  0.00    +0.000 OA
ATOM     12  O   UNL     1     112.721 124.333 136.436  0.00  0.00    +0.000 OA
ATOM     13  O   UNL     1     111.208 124.637 135.853  0.00  0.00    +0.000 OA
ATOM     14  C   UNL     1     111.999 125.783 137.898  0.00  0.00    +0.000 C 
ATOM     15  C   UNL     1     112.492 125.249 137.508  0.00  0.00    +0.000 C 
ATOM     16  C   UNL     1     112.228 124.866 136.826  0.00  0.00    +0.000 C 
ATOM     17  C   UNL     1     111.471 125.019 136.535  0.00  0.00    +0.000 C 
ATOM     18  C   UNL     1     110.979 125.553 136.924  0.00  0.00    +0.000 C 
ENDBRANCH   9  14
ENDBRANCH   4   9
BRANCH   8  19
ATOM     19  O   UNL     1     112.491 127.794 138.444  0.00  0.00    +0.000 OA
BRANCH  19  24
ATOM     20  O   UNL     1     113.371 129.791 138.404  0.00  0.00    +0.000 OA
ATOM     21  O   UNL     1     113.203 127.851 139.932  0.00  0.00    +0.000 OA
ATOM     22  O   UNL     1     113.976 128.539 140.937  0.00  0.00    +0.000 OA
ATOM     23  O   UNL     1     114.936 131.241 140.386  0.00  0.00    +0.000 OA
ATOM     24  C   UNL     1     112.903 128.469 138.679  0.00  0.00    +0.000 A 
ATOM     25  C   UNL     1     112.959 129.116 138.169  0.00  0.00    +0.000 A 
ATOM     26  C   UNL     1     113.258 128.497 139.422  0.00  0.00    +0.000 A 
ATOM     27  C   UNL     1     113.670 129.173 139.657  0.00  0.00    +0.000 A 
ATOM     28  C   UNL     1     113.727 129.820 139.148  0.00  0.00    +0.000 A 
ATOM     29  C   UNL     1     114.037 129.191 140.435  0.00  0.00    +0.000 A 
ATOM     30  C   UNL     1     114.153 130.528 139.382  0.00  0.00    +0.000 A 
ATOM     31  C   UNL     1     114.467 129.891 140.685  0.00  0.00    +0.000 A 
ATOM     32  C   UNL     1     114.525 130.564 140.154  0.00  0.00    +0.000 A 
BRANCH  25  34
ATOM     33  O   UNL     1     111.536 129.003 135.194  0.00  0.00    +0.000 OA
ATOM     34  C   UNL     1     112.603 129.088 137.426  0.00  0.00    +0.000 A 
ATOM     35  C   UNL     1     112.990 128.718 136.798  0.00  0.00    +0.000 A 
ATOM     36  C   UNL     1     111.861 129.428 137.310  0.00  0.00    +0.000 A 
ATOM     37  C   UNL     1     112.634 128.690 136.053  0.00  0.00    +0.000 A 
ATOM     38  C   UNL     1     111.505 129.400 136.566  0.00  0.00    +0.000 A 
ATOM     39  C   UNL     1     111.892 129.031 135.938  0.00  0.00    +0.000 A 
ENDBRANCH  25  34
ENDBRANCH  19  24
ENDBRANCH   8  19
BRANCH   7  40
ATOM     40  C   UNL     1     110.266 128.252 140.178  0.00  0.00    +0.000 C 
BRANCH  40  41
ATOM     41  O   UNL     1     109.949 128.902 139.782  0.00  0.00    +0.000 OA
BRANCH  41  46
ATOM     42  O   UNL     1     109.783 129.651 140.989  0.00  0.00    +0.000 OA
ATOM     43  O   UNL     1     108.747 129.782 139.072  0.00  0.00    +0.000 OA
ATOM     44  O   UNL     1     107.980 130.969 139.923  0.00  0.00    +0.000 OA
ATOM     45  O   UNL     1     108.416 131.278 141.484  0.00  0.00    +0.000 OA
ATOM     46  C   UNL     1     109.565 129.497 140.208  0.00  0.00    +0.000 C 
ATOM     47  C   UNL     1     108.964 129.937 139.853  0.00  0.00    +0.000 C 
ATOM     48  C   UNL     1     108.581 130.530 140.278  0.00  0.00    +0.000 C 
ATOM     49  C   UNL     1     108.799 130.684 141.058  0.00  0.00    +0.000 C 
ATOM     50  C   UNL     1     109.400 130.245 141.413  0.00  0.00    +0.000 C 
ATOM     51  C   UNL     1     109.618 130.399 142.195  0.00  0.00    +0.000 C 
ENDBRANCH  41  46
ENDBRANCH  40  41
ENDBRANCH   7  40
TORSDOF 8
ENDMDL
MODEL 4
REMARK VINA RESULT:     -10.6      1.716      5.487
REMARK  Name = 25115190
REMARK  8 active torsions:
REMARK  status: ('A' for Active; 'I' for Inactive)
REMARK    1  A    between atoms: O_2  and  C_20
REMARK    2  A    between atoms: O_2  and  C_26
REMARK    3  A    between atoms: O_3  and  C_25
REMARK    4  A    between atoms: O_3  and  C_27
REMARK    5  A    between atoms: O_7  and  C_24
REMARK    6  A    between atoms: O_7  and  C_37
REMARK    7  A    between atoms: C_23  and  C_25
REMARK    8  A    between atoms: C_38  and  C_41
REMARK                            x       y       z     vdW  Elec       q    Type
REMARK                         _______ _______ _______ _____ _____    ______ ____
ROOT
ATOM      1  O   UNL     1     111.375 128.033 136.146  0.00  0.00    +0.000 OA
ATOM      2  O   UNL     1     110.994 125.888 134.972  0.00  0.00    +0.000 OA
ATOM      3  O   UNL     1     109.941 127.142 134.763  0.00  0.00    +0.000 OA
ATOM      4  C   UNL     1     111.775 126.691 135.859  0.00  0.00    +0.000 C 
ATOM      5  C   UNL     1     111.121 126.603 135.363  0.00  0.00    +0.000 C 
ATOM      6  C   UNL     1     110.595 127.229 135.259  0.00  0.00    +0.000 C 
ATOM      7  C   UNL     1     110.722 127.944 135.650  0.00  0.00    +0.000 C 
ATOM      8  C   UNL     1     111.902 127.406 136.250  0.00  0.00    +0.000 C 
ENDROOT
BRANCH   4   9
ATOM      9  O   UNL     1     112.301 126.065 135.963  0.00  0.00    +0.000 OA
BRANCH   9  14
ATOM     10  O   UNL     1     111.393 125.454 136.883  0.00  0.00    +0.000 OA
ATOM     11  O   UNL     1     113.312 124.768 136.101  0.00  0.00    +0.000 OA
ATOM     12  O   UNL     1     112.910 123.510 137.089  0.00  0.00    +0.000 OA
ATOM     13  O   UNL     1     111.497 123.548 137.940  0.00  0.00    +0.000 OA
ATOM     14  C   UNL     1     112.100 125.435 136.457  0.00  0.00    +0.000 C 
ATOM     15  C   UNL     1     112.606 124.787 136.526  0.00  0.00    +0.000 C 
ATOM     16  C   UNL     1     112.405 124.157 137.021  0.00  0.00    +0.000 C 
ATOM     17  C   UNL     1     111.698 124.177 137.446  0.00  0.00    +0.000 C 
ATOM     18  C   UNL     1     111.192 124.824 137.377  0.00  0.00    +0.000 C 
ENDBRANCH   9  14
ENDBRANCH   4   9
BRANCH   8  19
ATOM     19  O   UNL     1     112.555 127.495 136.746  0.00  0.00    +0.000 OA
BRANCH  19  24
ATOM     20  O   UNL     1     113.511 129.318 137.471  0.00  0.00    +0.000 OA
ATOM     21  O   UNL     1     113.161 128.109 135.340  0.00  0.00    +0.000 OA
ATOM     22  O   UNL     1     113.887 129.122 134.612  0.00  0.00    +0.000 OA
ATOM     23  O   UNL     1     114.987 131.401 136.069  0.00  0.00    +0.000 OA
ATOM     24  C   UNL     1     112.975 128.205 136.753  0.00  0.00    +0.000 A 
ATOM     25  C   UNL     1     113.092 128.608 137.464  0.00  0.00    +0.000 A 
ATOM     26  C   UNL     1     113.278 128.511 136.050  0.00  0.00    +0.000 A 
ATOM     27  C   UNL     1     113.697 129.222 136.057  0.00  0.00    +0.000 A 
ATOM     28  C   UNL     1     113.815 129.625 136.767  0.00  0.00    +0.000 A 
ATOM     29  C   UNL     1     114.008 129.532 135.318  0.00  0.00    +0.000 A 
ATOM     30  C   UNL     1     114.250 130.365 136.787  0.00  0.00    +0.000 A 
ATOM     31  C   UNL     1     114.446 130.271 135.318  0.00  0.00    +0.000 A 
ATOM     32  C   UNL     1     114.568 130.690 136.059  0.00  0.00    +0.000 A 
BRANCH  25  34
ATOM     33  O   UNL     1     111.881 127.379 140.277  0.00  0.00    +0.000 OA
ATOM     34  C   UNL     1     112.789 128.301 138.167  0.00  0.00    +0.000 A 
ATOM     35  C   UNL     1     113.201 127.711 138.570  0.00  0.00    +0.000 A 
ATOM     36  C   UNL     1     112.074 128.583 138.467  0.00  0.00    +0.000 A 
ATOM     37  C   UNL     1     112.898 127.404 139.274  0.00  0.00    +0.000 A 
ATOM     38  C   UNL     1     111.771 128.277 139.170  0.00  0.00    +0.000 A 
ATOM     39  C   UNL     1     112.184 127.687 139.573  0.00  0.00    +0.000 A 
ENDBRANCH  25  34
ENDBRANCH  19  24
ENDBRANCH   8  19
BRANCH   7  40
ATOM     40  C   UNL     1     110.196 128.572 135.546  0.00  0.00    +0.000 C 
BRANCH  40  41
ATOM     41  O   UNL     1     109.823 128.910 136.200  0.00  0.00    +0.000 OA
BRANCH  41  46
ATOM     42  O   UNL     1     109.470 130.048 135.411  0.00  0.00    +0.000 OA
ATOM     43  O   UNL     1     108.967 129.524 137.470  0.00  0.00    +0.000 OA
ATOM     44  O   UNL     1     108.186 130.969 137.316  0.00  0.00    +0.000 OA
ATOM     45  O   UNL     1     108.260 131.800 135.893  0.00  0.00    +0.000 OA
ATOM     46  C   UNL     1     109.432 129.633 136.123  0.00  0.00    +0.000 C 
ATOM     47  C   UNL     1     109.004 129.940 136.758  0.00  0.00    +0.000 C 
ATOM     48  C   UNL     1     108.614 130.662 136.681  0.00  0.00    +0.000 C 
ATOM     49  C   UNL     1     108.651 131.077 135.970  0.00  0.00    +0.000 C 
ATOM     50  C   UNL     1     109.079 130.770 135.335  0.00  0.00    +0.000 C 
ATOM     51  C   UNL     1     109.116 131.186 134.623  0.00  0.00    +0.000 C 
ENDBRANCH  41  46
ENDBRANCH  40  41
ENDBRANCH   7  40
TORSDOF 8
ENDMDL
MODEL 5
REMARK VINA RESULT:     -10.6      1.688      5.479
REMARK  Name = 25115190
REMARK  8 active torsions:
REMARK  status: ('A' for Active; 'I' for Inactive)
REMARK    1  A    between atoms: O_2  and  C_20
REMARK    2  A    between atoms: O_2  and  C_26
REMARK    3  A    between atoms: O_3  and  C_25
REMARK    4  A    between atoms: O_3  and  C_27
REMARK    5  A    between atoms: O_7  and  C_24
REMARK    6  A    between atoms: O_7  and  C_37
REMARK    7  A    between atoms: C_23  and  C_25
REMARK    8  A    between atoms: C_38  and  C_41
REMARK                            x       y       z     vdW  Elec       q    Type
REMARK                         _______ _______ _______ _____ _____    ______ ____
ROOT
ATOM      1  O   UNL     1     112.483 128.123 138.901  0.00  0.00    +0.000 OA
ATOM      2  O   UNL     1     112.210 125.745 139.533  0.00  0.00    +0.000 OA
ATOM      3  O   UNL     1     112.999 126.783 140.545  0.00  0.00    +0.000 OA
ATOM      4  C   UNL     1     111.997 126.811 138.605  0.00  0.00    +0.000 C 
ATOM      5  C   UNL     1     112.301 126.538 139.322  0.00  0.00    +0.000 C 
ATOM      6  C   UNL     1     112.695 127.056 139.828  0.00  0.00    +0.000 C 
ATOM      7  C   UNL     1     112.786 127.848 139.617  0.00  0.00    +0.000 C 
ATOM      8  C   UNL     1     112.088 127.604 138.395  0.00  0.00    +0.000 C 
ENDROOT
BRANCH   4   9
ATOM      9  O   UNL     1     111.603 126.293 138.100  0.00  0.00    +0.000 OA
BRANCH   9  14
ATOM     10  O   UNL     1     112.857 125.782 137.642  0.00  0.00    +0.000 OA
ATOM     11  O   UNL     1     110.812 125.180 137.173  0.00  0.00    +0.000 OA
ATOM     12  O   UNL     1     111.670 124.113 136.253  0.00  0.00    +0.000 OA
ATOM     13  O   UNL     1     113.320 124.159 136.259  0.00  0.00    +0.000 OA
ATOM     14  C   UNL     1     112.032 125.760 137.640  0.00  0.00    +0.000 C 
ATOM     15  C   UNL     1     111.636 125.203 137.176  0.00  0.00    +0.000 C 
ATOM     16  C   UNL     1     112.066 124.669 136.716  0.00  0.00    +0.000 C 
ATOM     17  C   UNL     1     112.890 124.693 136.719  0.00  0.00    +0.000 C 
ATOM     18  C   UNL     1     113.286 125.248 137.182  0.00  0.00    +0.000 C 
ENDBRANCH   9  14
ENDBRANCH   4   9
BRANCH   8  19
ATOM     19  O   UNL     1     111.785 127.878 137.679  0.00  0.00    +0.000 OA
BRANCH  19  24
ATOM     20  O   UNL     1     111.310 129.931 137.110  0.00  0.00    +0.000 OA
ATOM     21  O   UNL     1     110.452 128.159 138.610  0.00  0.00    +0.000 OA
ATOM     22  O   UNL     1     109.385 129.018 139.062  0.00  0.00    +0.000 OA
ATOM     23  O   UNL     1     109.183 131.721 137.976  0.00  0.00    +0.000 OA
ATOM     24  C   UNL     1     111.404 128.609 137.644  0.00  0.00    +0.000 A 
ATOM     25  C   UNL     1     111.690 129.200 137.144  0.00  0.00    +0.000 A 
ATOM     26  C   UNL     1     110.738 128.749 138.109  0.00  0.00    +0.000 A 
ATOM     27  C   UNL     1     110.357 129.480 138.075  0.00  0.00    +0.000 A 
ATOM     28  C   UNL     1     110.643 130.071 137.575  0.00  0.00    +0.000 A 
ATOM     29  C   UNL     1     109.664 129.615 138.565  0.00  0.00    +0.000 A 
ATOM     30  C   UNL     1     110.255 130.837 137.531  0.00  0.00    +0.000 A 
ATOM     31  C   UNL     1     109.263 130.374 138.534  0.00  0.00    +0.000 A 
ATOM     32  C   UNL     1     109.561 130.989 138.013  0.00  0.00    +0.000 A 
BRANCH  25  34
ATOM     33  O   UNL     1     114.356 128.638 135.281  0.00  0.00    +0.000 OA
ATOM     34  C   UNL     1     112.356 129.060 136.679  0.00  0.00    +0.000 A 
ATOM     35  C   UNL     1     112.286 128.636 135.974  0.00  0.00    +0.000 A 
ATOM     36  C   UNL     1     113.094 129.343 136.917  0.00  0.00    +0.000 A 
ATOM     37  C   UNL     1     112.952 128.495 135.508  0.00  0.00    +0.000 A 
ATOM     38  C   UNL     1     113.760 129.203 136.451  0.00  0.00    +0.000 A 
ATOM     39  C   UNL     1     113.689 128.779 135.747  0.00  0.00    +0.000 A 
ENDBRANCH  25  34
ENDBRANCH  19  24
ENDBRANCH   8  19
BRANCH   7  40
ATOM     40  C   UNL     1     113.181 128.368 140.124  0.00  0.00    +0.000 C 
BRANCH  40  41
ATOM     41  O   UNL     1     112.808 129.058 140.379  0.00  0.00    +0.000 OA
BRANCH  41  46
ATOM     42  O   UNL     1     114.035 129.787 140.447  0.00  0.00    +0.000 OA
ATOM     43  O   UNL     1     112.143 130.069 141.500  0.00  0.00    +0.000 OA
ATOM     44  O   UNL     1     113.038 131.305 142.129  0.00  0.00    +0.000 OA
ATOM     45  O   UNL     1     114.597 131.529 141.637  0.00  0.00    +0.000 OA
ATOM     46  C   UNL     1     113.255 129.676 140.693  0.00  0.00    +0.000 C 
ATOM     47  C   UNL     1     112.923 130.182 141.254  0.00  0.00    +0.000 C 
ATOM     48  C   UNL     1     113.370 130.799 141.568  0.00  0.00    +0.000 C 
ATOM     49  C   UNL     1     114.149 130.911 141.323  0.00  0.00    +0.000 C 
ATOM     50  C   UNL     1     114.481 130.405 140.762  0.00  0.00    +0.000 C 
ATOM     51  C   UNL     1     115.261 130.517 140.516  0.00  0.00    +0.000 C 
ENDBRANCH  41  46
ENDBRANCH  40  41
ENDBRANCH   7  40
TORSDOF 8
ENDMDL
MODEL 6
REMARK VINA RESULT:     -10.6      1.159      2.918
REMARK  Name = 25115190
REMARK  8 active torsions:
REMARK  status: ('A' for Active; 'I' for Inactive)
REMARK    1  A    between atoms: O_2  and  C_20
REMARK    2  A    between atoms: O_2  and  C_26
REMARK    3  A    between atoms: O_3  and  C_25
REMARK    4  A    between atoms: O_3  and  C_27
REMARK    5  A    between atoms: O_7  and  C_24
REMARK    6  A    between atoms: O_7  and  C_37
REMARK    7  A    between atoms: C_23  and  C_25
REMARK    8  A    between atoms: C_38  and  C_41
REMARK                            x       y       z     vdW  Elec       q    Type
REMARK                         _______ _______ _______ _____ _____    ______ ____
ROOT
ATOM      1  O   UNL     1     111.155 128.387 137.726  0.00  0.00    +0.000 OA
ATOM      2  O   UNL     1     108.998 129.515 138.175  0.00  0.00    +0.000 OA
ATOM      3  O   UNL     1     109.020 127.939 137.688  0.00  0.00    +0.000 OA
ATOM      4  C   UNL     1     110.426 129.552 138.119  0.00  0.00    +0.000 C 
ATOM      5  C   UNL     1     109.717 129.139 138.025  0.00  0.00    +0.000 C 
ATOM      6  C   UNL     1     109.728 128.352 137.782  0.00  0.00    +0.000 C 
ATOM      7  C   UNL     1     110.447 127.976 137.633  0.00  0.00    +0.000 C 
ATOM      8  C   UNL     1     111.145 129.176 137.970  0.00  0.00    +0.000 C 
ENDROOT
BRANCH   4   9
ATOM      9  O   UNL     1     110.415 130.340 138.362  0.00  0.00    +0.000 OA
BRANCH   9  14
ATOM     10  O   UNL     1     110.144 129.924 139.703  0.00  0.00    +0.000 OA
ATOM     11  O   UNL     1     110.485 131.910 138.864  0.00  0.00    +0.000 OA
ATOM     12  O   UNL     1     110.248 132.279 140.455  0.00  0.00    +0.000 OA
ATOM     13  O   UNL     1     109.941 131.078 141.544  0.00  0.00    +0.000 OA
ATOM     14  C   UNL     1     110.297 130.524 139.158  0.00  0.00    +0.000 C 
ATOM     15  C   UNL     1     110.332 131.310 139.409  0.00  0.00    +0.000 C 
ATOM     16  C   UNL     1     110.213 131.495 140.204  0.00  0.00    +0.000 C 
ATOM     17  C   UNL     1     110.060 130.893 140.748  0.00  0.00    +0.000 C 
ATOM     18  C   UNL     1     110.025 130.109 140.498  0.00  0.00    +0.000 C 
ENDBRANCH   9  14
ENDBRANCH   4   9
BRANCH   8  19
ATOM     19  O   UNL     1     111.853 129.588 138.064  0.00  0.00    +0.000 OA
BRANCH  19  24
ATOM     20  O   UNL     1     113.850 129.111 137.322  0.00  0.00    +0.000 OA
ATOM     21  O   UNL     1     111.624 129.735 136.436  0.00  0.00    +0.000 OA
ATOM     22  O   UNL     1     112.117 129.682 135.081  0.00  0.00    +0.000 OA
ATOM     23  O   UNL     1     114.913 128.983 134.614  0.00  0.00    +0.000 OA
ATOM     24  C   UNL     1     112.481 129.454 137.545  0.00  0.00    +0.000 A 
ATOM     25  C   UNL     1     113.222 129.246 137.841  0.00  0.00    +0.000 A 
ATOM     26  C   UNL     1     112.366 129.527 136.732  0.00  0.00    +0.000 A 
ATOM     27  C   UNL     1     112.994 129.393 136.213  0.00  0.00    +0.000 A 
ATOM     28  C   UNL     1     113.735 129.185 136.508  0.00  0.00    +0.000 A 
ATOM     29  C   UNL     1     112.862 129.473 135.367  0.00  0.00    +0.000 A 
ATOM     30  C   UNL     1     114.397 129.043 135.978  0.00  0.00    +0.000 A 
ATOM     31  C   UNL     1     113.511 129.335 134.822  0.00  0.00    +0.000 A 
ATOM     32  C   UNL     1     114.284 129.118 135.130  0.00  0.00    +0.000 A 
BRANCH  25  34
ATOM     33  O   UNL     1     113.681 128.951 141.096  0.00  0.00    +0.000 OA
ATOM     34  C   UNL     1     113.337 129.172 138.654  0.00  0.00    +0.000 A 
ATOM     35  C   UNL     1     113.502 129.840 139.109  0.00  0.00    +0.000 A 
ATOM     36  C   UNL     1     113.286 128.431 139.013  0.00  0.00    +0.000 A 
ATOM     37  C   UNL     1     113.617 129.766 139.923  0.00  0.00    +0.000 A 
ATOM     38  C   UNL     1     113.401 128.357 139.826  0.00  0.00    +0.000 A 
ATOM     39  C   UNL     1     113.566 129.025 140.281  0.00  0.00    +0.000 A 
ENDBRANCH  25  34
ENDBRANCH  19  24
ENDBRANCH   8  19
BRANCH   7  40
ATOM     40  C   UNL     1     110.458 127.187 137.389  0.00  0.00    +0.000 C 
BRANCH  40  41
ATOM     41  O   UNL     1     110.959 126.648 137.761  0.00  0.00    +0.000 OA
BRANCH  41  46
ATOM     42  O   UNL     1     111.073 125.853 136.579  0.00  0.00    +0.000 OA
ATOM     43  O   UNL     1     111.417 125.353 138.675  0.00  0.00    +0.000 OA
ATOM     44  O   UNL     1     111.759 123.911 137.950  0.00  0.00    +0.000 OA
ATOM     45  O   UNL     1     111.643 123.764 136.311  0.00  0.00    +0.000 OA
ATOM     46  C   UNL     1     111.130 125.926 137.398  0.00  0.00    +0.000 C 
ATOM     47  C   UNL     1     111.359 125.279 137.855  0.00  0.00    +0.000 C 
ATOM     48  C   UNL     1     111.530 124.558 137.493  0.00  0.00    +0.000 C 
ATOM     49  C   UNL     1     111.472 124.485 136.674  0.00  0.00    +0.000 C 
ATOM     50  C   UNL     1     111.244 125.132 136.217  0.00  0.00    +0.000 C 
ATOM     51  C   UNL     1     111.186 125.059 135.396  0.00  0.00    +0.000 C 
ENDBRANCH  41  46
ENDBRANCH  40  41
ENDBRANCH   7  40
TORSDOF 8
ENDMDL
MODEL 7
REMARK VINA RESULT:     -10.5      1.944      4.702
REMARK  Name = 25115190
REMARK  8 active torsions:
REMARK  status: ('A' for Active; 'I' for Inactive)
REMARK    1  A    between atoms: O_2  and  C_20
REMARK    2  A    between atoms: O_2  and  C_26
REMARK    3  A    between atoms: O_3  and  C_25
REMARK    4  A    between atoms: O_3  and  C_27
REMARK    5  A    between atoms: O_7  and  C_24
REMARK    6  A    between atoms: O_7  and  C_37
REMARK    7  A    between atoms: C_23  and  C_25
REMARK    8  A    between atoms: C_38  and  C_41
REMARK                            x       y       z     vdW  Elec       q    Type
REMARK                         _______ _______ _______ _____ _____    ______ ____
ROOT
ATOM      1  O   UNL     1     111.588 127.645 138.050  0.00  0.00    +0.000 OA
ATOM      2  O   UNL     1     109.125 127.421 138.146  0.00  0.00    +0.000 OA
ATOM      3  O   UNL     1     109.813 128.553 137.163  0.00  0.00    +0.000 OA
ATOM      4  C   UNL     1     110.423 127.004 138.575  0.00  0.00    +0.000 C 
ATOM      5  C   UNL     1     109.946 127.496 138.114  0.00  0.00    +0.000 C 
ATOM      6  C   UNL     1     110.289 128.061 137.623  0.00  0.00    +0.000 C 
ATOM      7  C   UNL     1     111.110 128.136 137.591  0.00  0.00    +0.000 C 
ATOM      8  C   UNL     1     111.244 127.079 138.543  0.00  0.00    +0.000 C 
ENDROOT
BRANCH   4   9
ATOM      9  O   UNL     1     110.079 126.438 139.066  0.00  0.00    +0.000 OA
BRANCH   9  14
ATOM     10  O   UNL     1     109.754 127.456 140.015  0.00  0.00    +0.000 OA
ATOM     11  O   UNL     1     109.497 125.291 140.099  0.00  0.00    +0.000 OA
ATOM     12  O   UNL     1     108.882 125.736 141.564  0.00  0.00    +0.000 OA
ATOM     13  O   UNL     1     108.848 127.328 141.996  0.00  0.00    +0.000 OA
ATOM     14  C   UNL     1     109.771 126.661 139.799  0.00  0.00    +0.000 C 
ATOM     15  C   UNL     1     109.480 126.087 140.316  0.00  0.00    +0.000 C 
ATOM     16  C   UNL     1     109.172 126.309 141.048  0.00  0.00    +0.000 C 
ATOM     17  C   UNL     1     109.156 127.105 141.264  0.00  0.00    +0.000 C 
ATOM     18  C   UNL     1     109.447 127.679 140.748  0.00  0.00    +0.000 C 
ENDBRANCH   9  14
ENDBRANCH   4   9
BRANCH   8  19
ATOM     19  O   UNL     1     111.721 126.588 139.002  0.00  0.00    +0.000 OA
BRANCH  19  24
ATOM     20  O   UNL     1     113.849 126.159 138.778  0.00  0.00    +0.000 OA
ATOM     21  O   UNL     1     111.714 125.695 137.614  0.00  0.00    +0.000 OA
ATOM     22  O   UNL     1     112.401 124.945 136.591  0.00  0.00    +0.000 OA
ATOM     23  O   UNL     1     115.303 124.659 136.748  0.00  0.00    +0.000 OA
ATOM     24  C   UNL     1     112.429 126.296 138.696  0.00  0.00    +0.000 A 
ATOM     25  C   UNL     1     113.141 126.451 139.084  0.00  0.00    +0.000 A 
ATOM     26  C   UNL     1     112.426 125.850 138.002  0.00  0.00    +0.000 A 
ATOM     27  C   UNL     1     113.134 125.558 137.696  0.00  0.00    +0.000 A 
ATOM     28  C   UNL     1     113.846 125.712 138.083  0.00  0.00    +0.000 A 
ATOM     29  C   UNL     1     113.118 125.094 136.972  0.00  0.00    +0.000 A 
ATOM     30  C   UNL     1     114.590 125.414 137.774  0.00  0.00    +0.000 A 
ATOM     31  C   UNL     1     113.852 124.788 136.648  0.00  0.00    +0.000 A 
ATOM     32  C   UNL     1     114.593 124.949 137.052  0.00  0.00    +0.000 A 
BRANCH  25  34
ATOM     33  O   UNL     1     113.156 128.236 141.859  0.00  0.00    +0.000 OA
ATOM     34  C   UNL     1     113.145 126.897 139.777  0.00  0.00    +0.000 A 
ATOM     35  C   UNL     1     113.345 127.697 139.752  0.00  0.00    +0.000 A 
ATOM     36  C   UNL     1     112.948 126.543 140.497  0.00  0.00    +0.000 A 
ATOM     37  C   UNL     1     113.349 128.143 140.446  0.00  0.00    +0.000 A 
ATOM     38  C   UNL     1     112.952 126.989 141.190  0.00  0.00    +0.000 A 
ATOM     39  C   UNL     1     113.152 127.789 141.165  0.00  0.00    +0.000 A 
ENDBRANCH  25  34
ENDBRANCH  19  24
ENDBRANCH   8  19
BRANCH   7  40
ATOM     40  C   UNL     1     111.455 128.703 137.099  0.00  0.00    +0.000 C 
BRANCH  40  41
ATOM     41  O   UNL     1     111.937 129.289 137.420  0.00  0.00    +0.000 OA
BRANCH  41  46
ATOM     42  O   UNL     1     112.994 129.109 136.476  0.00  0.00    +0.000 OA
ATOM     43  O   UNL     1     112.312 130.892 137.533  0.00  0.00    +0.000 OA
ATOM     44  O   UNL     1     113.556 131.513 136.645  0.00  0.00    +0.000 OA
ATOM     45  O   UNL     1     114.426 130.531 135.645  0.00  0.00    +0.000 OA
ATOM     46  C   UNL     1     112.560 129.600 136.976  0.00  0.00    +0.000 C 
ATOM     47  C   UNL     1     112.747 130.401 137.033  0.00  0.00    +0.000 C 
ATOM     48  C   UNL     1     113.369 130.712 136.589  0.00  0.00    +0.000 C 
ATOM     49  C   UNL     1     113.804 130.221 136.089  0.00  0.00    +0.000 C 
ATOM     50  C   UNL     1     113.616 129.420 136.033  0.00  0.00    +0.000 C 
ATOM     51  C   UNL     1     114.052 128.928 135.532  0.00  0.00    +0.000 C 
ENDBRANCH  41  46
ENDBRANCH  40  41
ENDBRANCH   7  40
TORSDOF 8
ENDMDL
MODEL 8
REMARK VINA RESULT:     -10.5      1.791      3.051
REMARK  Name = 25115190
REMARK  8 active torsions:
REMARK  status: ('A' for Active; 'I' for Inactive)
REMARK    1  A    between atoms: O_2  and  C_20
REMARK    2  A    between atoms: O_2  and  C_26
REMARK    3  A    between atoms: O_3  and  C_25
REMARK    4  A    between atoms: O_3  and  C_27
REMARK    5  A    between atoms: O_7  and  C_24
REMARK    6  A    between atoms: O_7  and  C_37
REMARK    7  A    between atoms: C_23  and  C_25
REMARK    8  A    between atoms: C_38  and  C_41
REMARK                            x       y       z     vdW  Elec       q    Type
REMARK                         _______ _______ _______ _____ _____    ______ ____
ROOT
ATOM      1  O   UNL     1     111.749 128.838 137.014  0.00  0.00    +0.000 OA
ATOM      2  O   UNL     1     110.935 129.704 134.843  0.00  0.00    +0.000 OA
ATOM      3  O   UNL     1     111.709 128.249 134.913  0.00  0.00    +0.000 OA
ATOM      4  C   UNL     1     111.090 129.855 136.255  0.00  0.00    +0.000 C 
ATOM      5  C   UNL     1     111.206 129.416 135.567  0.00  0.00    +0.000 C 
ATOM      6  C   UNL     1     111.593 128.689 135.601  0.00  0.00    +0.000 C 
ATOM      7  C   UNL     1     111.864 128.400 136.325  0.00  0.00    +0.000 C 
ATOM      8  C   UNL     1     111.361 129.567 136.979  0.00  0.00    +0.000 C 
ENDROOT
BRANCH   4   9
ATOM      9  O   UNL     1     110.703 130.583 136.221  0.00  0.00    +0.000 OA
BRANCH   9  14
ATOM     10  O   UNL     1     109.445 129.910 136.135  0.00  0.00    +0.000 OA
ATOM     11  O   UNL     1     109.932 132.037 136.114  0.00  0.00    +0.000 OA
ATOM     12  O   UNL     1     108.289 132.091 135.974  0.00  0.00    +0.000 OA
ATOM     13  O   UNL     1     107.417 130.691 135.942  0.00  0.00    +0.000 OA
ATOM     14  C   UNL     1     109.881 130.610 136.151  0.00  0.00    +0.000 C 
ATOM     15  C   UNL     1     109.495 131.337 136.097  0.00  0.00    +0.000 C 
ATOM     16  C   UNL     1     108.674 131.365 136.027  0.00  0.00    +0.000 C 
ATOM     17  C   UNL     1     108.238 130.664 136.011  0.00  0.00    +0.000 C 
ATOM     18  C   UNL     1     108.623 129.937 136.065  0.00  0.00    +0.000 C 
ENDBRANCH   9  14
ENDBRANCH   4   9
BRANCH   8  19
ATOM     19  O   UNL     1     111.246 130.005 137.668  0.00  0.00    +0.000 OA
BRANCH  19  24
ATOM     20  O   UNL     1     112.271 129.862 139.589  0.00  0.00    +0.000 OA
ATOM     21  O   UNL     1     112.760 130.511 137.251  0.00  0.00    +0.000 OA
ATOM     22  O   UNL     1     114.130 130.810 137.590  0.00  0.00    +0.000 OA
ATOM     23  O   UNL     1     115.022 130.446 140.347  0.00  0.00    +0.000 OA
ATOM     24  C   UNL     1     111.840 130.042 138.239  0.00  0.00    +0.000 A 
ATOM     25  C   UNL     1     111.677 129.825 139.018  0.00  0.00    +0.000 A 
ATOM     26  C   UNL     1     112.597 130.294 138.031  0.00  0.00    +0.000 A 
ATOM     27  C   UNL     1     113.191 130.331 138.601  0.00  0.00    +0.000 A 
ATOM     28  C   UNL     1     113.029 130.115 139.381  0.00  0.00    +0.000 A 
ATOM     29  C   UNL     1     113.976 130.596 138.372  0.00  0.00    +0.000 A 
ATOM     30  C   UNL     1     113.639 130.149 139.984  0.00  0.00    +0.000 A 
ATOM     31  C   UNL     1     114.600 130.636 138.962  0.00  0.00    +0.000 A 
ATOM     32  C   UNL     1     114.429 130.411 139.774  0.00  0.00    +0.000 A 
BRANCH  25  34
ATOM     33  O   UNL     1     108.648 128.815 139.853  0.00  0.00    +0.000 OA
ATOM     34  C   UNL     1     110.920 129.573 139.227  0.00  0.00    +0.000 A 
ATOM     35  C   UNL     1     110.330 130.127 139.385  0.00  0.00    +0.000 A 
ATOM     36  C   UNL     1     110.753 128.766 139.277  0.00  0.00    +0.000 A 
ATOM     37  C   UNL     1     109.572 129.874 139.594  0.00  0.00    +0.000 A 
ATOM     38  C   UNL     1     109.996 128.514 139.486  0.00  0.00    +0.000 A 
ATOM     39  C   UNL     1     109.406 129.068 139.644  0.00  0.00    +0.000 A 
ENDBRANCH  25  34
ENDBRANCH  19  24
ENDBRANCH   8  19
BRANCH   7  40
ATOM     40  C   UNL     1     112.252 127.672 136.360  0.00  0.00    +0.000 C 
BRANCH  40  41
ATOM     41  O   UNL     1     111.962 127.074 136.850  0.00  0.00    +0.000 OA
BRANCH  41  46
ATOM     42  O   UNL     1     113.174 126.324 136.741  0.00  0.00    +0.000 OA
ATOM     43  O   UNL     1     111.156 125.707 137.299  0.00  0.00    +0.000 OA
ATOM     44  O   UNL     1     111.964 124.273 137.415  0.00  0.00    +0.000 OA
ATOM     45  O   UNL     1     113.578 124.207 137.082  0.00  0.00    +0.000 OA
ATOM     46  C   UNL     1     112.366 126.357 136.908  0.00  0.00    +0.000 C 
ATOM     47  C   UNL     1     111.963 125.673 137.133  0.00  0.00    +0.000 C 
ATOM     48  C   UNL     1     112.367 124.957 137.190  0.00  0.00    +0.000 C 
ATOM     49  C   UNL     1     113.174 124.923 137.024  0.00  0.00    +0.000 C 
ATOM     50  C   UNL     1     113.577 125.607 136.799  0.00  0.00    +0.000 C 
ATOM     51  C   UNL     1     114.385 125.574 136.632  0.00  0.00    +0.000 C 
ENDBRANCH  41  46
ENDBRANCH  40  41
ENDBRANCH   7  40
TORSDOF 8
ENDMDL
MODEL 9
REMARK VINA RESULT:     -10.5      1.415      3.779
REMARK  Name = 25115190
REMARK  8 active torsions:
REMARK  status: ('A' for Active; 'I' for Inactive)
REMARK    1  A    between atoms: O_2  and  C_20
REMARK    2  A    between atoms: O_2  and  C_26
REMARK    3  A    between atoms: O_3  and  C_25
REMARK    4  A    between atoms: O_3  and  C_27
REMARK    5  A    between atoms: O_7  and  C_24
REMARK    6  A    between atoms: O_7  and  C_37
REMARK    7  A    between atoms: C_23  and  C_25
REMARK    8  A    between atoms: C_38  and  C_41
REMARK                            x       y       z     vdW  Elec       q    Type
REMARK                         _______ _______ _______ _____ _____    ______ ____
ROOT
ATOM      1  O   UNL     1     111.271 128.423 138.058  0.00  0.00    +0.000 OA
ATOM      2  O   UNL     1     109.120 129.606 138.378  0.00  0.00    +0.000 OA
ATOM      3  O   UNL     1     110.167 129.442 139.643  0.00  0.00    +0.000 OA
ATOM      4  C   UNL     1     110.030 128.900 137.532  0.00  0.00    +0.000 C 
ATOM      5  C   UNL     1     109.837 129.212 138.272  0.00  0.00    +0.000 C 
ATOM      6  C   UNL     1     110.360 129.130 138.903  0.00  0.00    +0.000 C 
ATOM      7  C   UNL     1     111.077 128.736 138.797  0.00  0.00    +0.000 C 
ATOM      8  C   UNL     1     110.746 128.506 137.426  0.00  0.00    +0.000 C 
ENDROOT
BRANCH   4   9
ATOM      9  O   UNL     1     109.507 128.982 136.900  0.00  0.00    +0.000 OA
BRANCH   9  14
ATOM     10  O   UNL     1     109.935 130.333 136.718  0.00  0.00    +0.000 OA
ATOM     11  O   UNL     1     108.373 129.182 135.718  0.00  0.00    +0.000 OA
ATOM     12  O   UNL     1     108.234 130.633 134.945  0.00  0.00    +0.000 OA
ATOM     13  O   UNL     1     109.230 131.884 135.354  0.00  0.00    +0.000 OA
ATOM     14  C   UNL     1     109.437 129.708 136.514  0.00  0.00    +0.000 C 
ATOM     15  C   UNL     1     108.870 129.808 135.922  0.00  0.00    +0.000 C 
ATOM     16  C   UNL     1     108.801 130.534 135.536  0.00  0.00    +0.000 C 
ATOM     17  C   UNL     1     109.299 131.159 135.741  0.00  0.00    +0.000 C 
ATOM     18  C   UNL     1     109.865 131.059 136.331  0.00  0.00    +0.000 C 
ENDBRANCH   9  14
ENDBRANCH   4   9
BRANCH   8  19
ATOM     19  O   UNL     1     110.940 128.193 136.687  0.00  0.00    +0.000 OA
BRANCH  19  24
ATOM     20  O   UNL     1     112.441 126.694 136.173  0.00  0.00    +0.000 OA
ATOM     21  O   UNL     1     110.298 126.852 137.401  0.00  0.00    +0.000 OA
ATOM     22  O   UNL     1     110.345 125.446 137.723  0.00  0.00    +0.000 OA
ATOM     23  O   UNL     1     112.604 123.852 136.784  0.00  0.00    +0.000 OA
ATOM     24  C   UNL     1     111.333 127.470 136.635  0.00  0.00    +0.000 A 
ATOM     25  C   UNL     1     112.048 127.418 136.225  0.00  0.00    +0.000 A 
ATOM     26  C   UNL     1     111.012 126.800 136.992  0.00  0.00    +0.000 A 
ATOM     27  C   UNL     1     111.405 126.076 136.940  0.00  0.00    +0.000 A 
ATOM     28  C   UNL     1     112.119 126.023 136.530  0.00  0.00    +0.000 A 
ATOM     29  C   UNL     1     111.061 125.384 137.316  0.00  0.00    +0.000 A 
ATOM     30  C   UNL     1     112.538 125.275 136.469  0.00  0.00    +0.000 A 
ATOM     31  C   UNL     1     111.465 124.628 137.265  0.00  0.00    +0.000 A 
ATOM     32  C   UNL     1     112.209 124.574 136.838  0.00  0.00    +0.000 A 
BRANCH  25  34
ATOM     33  O   UNL     1     113.333 130.101 134.797  0.00  0.00    +0.000 OA
ATOM     34  C   UNL     1     112.369 128.088 135.869  0.00  0.00    +0.000 A 
ATOM     35  C   UNL     1     112.087 128.340 135.135  0.00  0.00    +0.000 A 
ATOM     36  C   UNL     1     112.972 128.508 136.245  0.00  0.00    +0.000 A 
ATOM     37  C   UNL     1     112.409 129.011 134.778  0.00  0.00    +0.000 A 
ATOM     38  C   UNL     1     113.293 129.178 135.888  0.00  0.00    +0.000 A 
ATOM     39  C   UNL     1     113.012 129.429 135.154  0.00  0.00    +0.000 A 
ENDBRANCH  25  34
ENDBRANCH  19  24
ENDBRANCH   8  19
BRANCH   7  40
ATOM     40  C   UNL     1     111.601 128.653 139.430  0.00  0.00    +0.000 C 
BRANCH  40  41
ATOM     41  O   UNL     1     112.361 128.970 139.378  0.00  0.00    +0.000 OA
BRANCH  41  46
ATOM     42  O   UNL     1     113.003 127.800 139.890  0.00  0.00    +0.000 OA
ATOM     43  O   UNL     1     113.559 129.907 140.017  0.00  0.00    +0.000 OA
ATOM     44  O   UNL     1     114.801 129.206 140.848  0.00  0.00    +0.000 OA
ATOM     45  O   UNL     1     114.843 127.568 141.040  0.00  0.00    +0.000 OA
ATOM     46  C   UNL     1     112.982 128.619 139.794  0.00  0.00    +0.000 C 
ATOM     47  C   UNL     1     113.581 129.088 140.114  0.00  0.00    +0.000 C 
ATOM     48  C   UNL     1     114.201 128.737 140.529  0.00  0.00    +0.000 C 
ATOM     49  C   UNL     1     114.223 127.919 140.625  0.00  0.00    +0.000 C 
ATOM     50  C   UNL     1     113.624 127.450 140.306  0.00  0.00    +0.000 C 
ATOM     51  C   UNL     1     113.645 126.631 140.402  0.00  0.00    +0.000 C 
ENDBRANCH  41  46
ENDBRANCH  40  41
ENDBRANCH   7  40
TORSDOF 8
ENDMDL
MODEL 10
REMARK VINA RESULT:     -10.5      1.583      5.204
REMARK  Name = 25115190
REMARK  8 active torsions:
REMARK  status: ('A' for Active; 'I' for Inactive)
REMARK    1  A    between atoms: O_2  and  C_20
REMARK    2  A    between atoms: O_2  and  C_26
REMARK    3  A    between atoms: O_3  and  C_25
REMARK    4  A    between atoms: O_3  and  C_27
REMARK    5  A    between atoms: O_7  and  C_24
REMARK    6  A    between atoms: O_7  and  C_37
REMARK    7  A    between atoms: C_23  and  C_25
REMARK    8  A    between atoms: C_38  and  C_41
REMARK                            x       y       z     vdW  Elec       q    Type
REMARK                         _______ _______ _______ _____ _____    ______ ____
ROOT
ATOM      1  O   UNL     1     111.924 128.866 138.260  0.00  0.00    +0.000 OA
ATOM      2  O   UNL     1     112.383 127.627 136.167  0.00  0.00    +0.000 OA
ATOM      3  O   UNL     1     111.377 128.936 136.148  0.00  0.00    +0.000 OA
ATOM      4  C   UNL     1     112.580 127.798 137.572  0.00  0.00    +0.000 C 
ATOM      5  C   UNL     1     112.230 128.040 136.865  0.00  0.00    +0.000 C 
ATOM      6  C   UNL     1     111.728 128.694 136.855  0.00  0.00    +0.000 C 
ATOM      7  C   UNL     1     111.575 129.107 137.553  0.00  0.00    +0.000 C 
ATOM      8  C   UNL     1     112.427 128.211 138.270  0.00  0.00    +0.000 C 
ENDROOT
BRANCH   4   9
ATOM      9  O   UNL     1     113.082 127.145 137.582  0.00  0.00    +0.000 OA
BRANCH   9  14
ATOM     10  O   UNL     1     111.951 126.271 137.557  0.00  0.00    +0.000 OA
ATOM     11  O   UNL     1     114.089 125.843 137.460  0.00  0.00    +0.000 OA
ATOM     12  O   UNL     1     113.462 124.320 137.374  0.00  0.00    +0.000 OA
ATOM     13  O   UNL     1     111.827 124.098 137.411  0.00  0.00    +0.000 OA
ATOM     14  C   UNL     1     112.768 126.383 137.539  0.00  0.00    +0.000 C 
ATOM     15  C   UNL     1     113.272 125.732 137.478  0.00  0.00    +0.000 C 
ATOM     16  C   UNL     1     112.958 124.970 137.435  0.00  0.00    +0.000 C 
ATOM     17  C   UNL     1     112.141 124.859 137.453  0.00  0.00    +0.000 C 
ATOM     18  C   UNL     1     111.638 125.509 137.514  0.00  0.00    +0.000 C 
ENDBRANCH   9  14
ENDBRANCH   4   9
BRANCH   8  19
ATOM     19  O   UNL     1     112.776 127.971 138.977  0.00  0.00    +0.000 OA
BRANCH  19  24
ATOM     20  O   UNL     1     113.048 129.055 140.852  0.00  0.00    +0.000 OA
ATOM     21  O   UNL     1     113.794 129.176 138.495  0.00  0.00    +0.000 OA
ATOM     22  O   UNL     1     114.580 130.354 138.773  0.00  0.00    +0.000 OA
ATOM     23  O   UNL     1     114.611 131.429 141.488  0.00  0.00    +0.000 OA
ATOM     24  C   UNL     1     113.037 128.533 139.522  0.00  0.00    +0.000 A 
ATOM     25  C   UNL     1     112.788 128.492 140.307  0.00  0.00    +0.000 A 
ATOM     26  C   UNL     1     113.545 129.135 139.280  0.00  0.00    +0.000 A 
ATOM     27  C   UNL     1     113.806 129.698 139.825  0.00  0.00    +0.000 A 
ATOM     28  C   UNL     1     113.558 129.658 140.610  0.00  0.00    +0.000 A 
ATOM     29  C   UNL     1     114.336 130.321 139.561  0.00  0.00    +0.000 A 
ATOM     30  C   UNL     1     113.822 130.238 141.187  0.00  0.00    +0.000 A 
ATOM     31  C   UNL     1     114.611 130.910 140.123  0.00  0.00    +0.000 A 
ATOM     32  C   UNL     1     114.352 130.868 140.942  0.00  0.00    +0.000 A 
BRANCH  25  34
ATOM     33  O   UNL     1     110.753 126.081 141.273  0.00  0.00    +0.000 OA
ATOM     34  C   UNL     1     112.279 127.890 140.549  0.00  0.00    +0.000 A 
ATOM     35  C   UNL     1     112.584 127.151 140.755  0.00  0.00    +0.000 A 
ATOM     36  C   UNL     1     111.466 128.025 140.584  0.00  0.00    +0.000 A 
ATOM     37  C   UNL     1     112.074 126.548 140.996  0.00  0.00    +0.000 A 
ATOM     38  C   UNL     1     110.958 127.423 140.826  0.00  0.00    +0.000 A 
ATOM     39  C   UNL     1     111.262 126.684 141.032  0.00  0.00    +0.000 A 
ENDBRANCH  25  34
ENDBRANCH  19  24
ENDBRANCH   8  19
BRANCH   7  40
ATOM     40  C   UNL     1     111.072 129.761 137.544  0.00  0.00    +0.000 C 
BRANCH  40  41
ATOM     41  O   UNL     1     110.478 129.833 138.112  0.00  0.00    +0.000 OA
BRANCH  41  46
ATOM     42  O   UNL     1     110.358 131.240 137.898  0.00  0.00    +0.000 OA
ATOM     43  O   UNL     1     108.950 129.797 138.734  0.00  0.00    +0.000 OA
ATOM     44  O   UNL     1     108.066 131.187 138.831  0.00  0.00    +0.000 OA
ATOM     45  O   UNL     1     108.710 132.612 138.306  0.00  0.00    +0.000 OA
ATOM     46  C   UNL     1     110.035 130.528 138.161  0.00  0.00    +0.000 C 
ATOM     47  C   UNL     1     109.272 130.510 138.472  0.00  0.00    +0.000 C 
ATOM     48  C   UNL     1     108.830 131.205 138.520  0.00  0.00    +0.000 C 
ATOM     49  C   UNL     1     109.151 131.917 138.258  0.00  0.00    +0.000 C 
ATOM     50  C   UNL     1     109.915 131.935 137.946  0.00  0.00    +0.000 C 
ATOM     51  C   UNL     1     110.237 132.648 137.683  0.00  0.00    +0.000 C 
ENDBRANCH  41  46
ENDBRANCH  40  41
ENDBRANCH   7  40
TORSDOF 8
ENDMDL
