MODEL 1
REMARK VINA RESULT:      -7.4      0.000      0.000
REMARK  Name = 21593928
REMARK  6 active torsions:
REMARK  status: ('A' for Active; 'I' for Inactive)
REMARK    1  A    between atoms: O_2  and  C_11
REMARK    2  A    between atoms: O_3  and  C_12
REMARK    3  A    between atoms: O_4  and  C_14
REMARK    4  A    between atoms: O_5  and  C_15
REMARK    5  A    between atoms: O_7  and  C_21
REMARK    6  A    between atoms: C_13  and  C_18
REMARK                            x       y       z     vdW  Elec       q    Type
REMARK                         _______ _______ _______ _____ _____    ______ ____
ROOT
ATOM      1  O   UNL     1     112.242 126.858 136.327  0.00  0.00    +0.000 OA
ATOM      2  O   UNL     1     110.361 125.265 135.752  0.00  0.00    +0.000 OA
ATOM      3  C   UNL     1     110.883 126.626 135.833  0.00  0.00    +0.000 A 
ATOM      4  C   UNL     1     111.494 127.147 136.020  0.00  0.00    +0.000 A 
ATOM      5  C   UNL     1     110.169 126.917 135.538  0.00  0.00    +0.000 A 
ATOM      6  C   UNL     1     111.392 127.960 135.912  0.00  0.00    +0.000 A 
ATOM      7  C   UNL     1     112.355 126.013 136.442  0.00  0.00    +0.000 A 
ATOM      8  C   UNL     1     110.066 127.727 135.430  0.00  0.00    +0.000 A 
ATOM      9  C   UNL     1     110.678 128.249 135.617  0.00  0.00    +0.000 A 
ATOM     10  C   UNL     1     110.977 125.779 135.941  0.00  0.00    +0.000 A 
ATOM     11  C   UNL     1     111.719 125.471 136.248  0.00  0.00    +0.000 A 
ENDROOT
BRANCH   7  13
ATOM     12  O   UNL     1     115.214 124.865 137.623  0.00  0.00    +0.000 OA
ATOM     13  C   UNL     1     113.070 125.726 136.737  0.00  0.00    +0.000 A 
ATOM     14  C   UNL     1     113.273 125.857 137.526  0.00  0.00    +0.000 A 
ATOM     15  C   UNL     1     113.582 125.308 136.244  0.00  0.00    +0.000 A 
ATOM     16  C   UNL     1     113.988 125.571 137.822  0.00  0.00    +0.000 A 
ATOM     17  C   UNL     1     114.297 125.021 136.539  0.00  0.00    +0.000 A 
ATOM     18  C   UNL     1     114.500 125.152 137.328  0.00  0.00    +0.000 A 
BRANCH  16  19
ATOM     19  O   UNL     1     114.191 125.702 138.611  0.00  0.00    +0.000 OA
ATOM     20  C   UNL     1     113.812 126.295 139.041  0.00  0.00    +0.000 C 
ENDBRANCH  16  19
ENDBRANCH   7  13
BRANCH   5  21
ATOM     21  O   UNL     1     109.558 126.395 135.351  0.00  0.00    +0.000 OA
ATOM     22  C   UNL     1     109.659 125.838 134.751  0.00  0.00    +0.000 C 
ENDBRANCH   5  21
BRANCH   6  23
ATOM     23  O   UNL     1     112.002 128.480 136.098  0.00  0.00    +0.000 OA
ATOM     24  C   UNL     1     111.976 128.914 136.799  0.00  0.00    +0.000 C 
ENDBRANCH   6  23
BRANCH   8  25
ATOM     25  O   UNL     1     109.353 128.018 135.135  0.00  0.00    +0.000 OA
ATOM     26  C   UNL     1     108.745 128.223 135.653  0.00  0.00    +0.000 C 
ENDBRANCH   8  25
BRANCH   9  27
ATOM     27  O   UNL     1     110.575 129.061 135.509  0.00  0.00    +0.000 OA
ATOM     28  C   UNL     1     110.772 129.408 134.787  0.00  0.00    +0.000 C 
ENDBRANCH   9  27
TORSDOF 6
ENDMDL
MODEL 2
REMARK VINA RESULT:      -7.4     12.886     13.790
REMARK  Name = 21593928
REMARK  6 active torsions:
REMARK  status: ('A' for Active; 'I' for Inactive)
REMARK    1  A    between atoms: O_2  and  C_11
REMARK    2  A    between atoms: O_3  and  C_12
REMARK    3  A    between atoms: O_4  and  C_14
REMARK    4  A    between atoms: O_5  and  C_15
REMARK    5  A    between atoms: O_7  and  C_21
REMARK    6  A    between atoms: C_13  and  C_18
REMARK                            x       y       z     vdW  Elec       q    Type
REMARK                         _______ _______ _______ _____ _____    ______ ____
ROOT
ATOM      1  O   UNL     1     104.189 124.458 146.778  0.00  0.00    +0.000 OA
ATOM      2  O   UNL     1     103.036 125.408 148.823  0.00  0.00    +0.000 OA
ATOM      3  C   UNL     1     102.982 124.622 147.593  0.00  0.00    +0.000 A 
ATOM      4  C   UNL     1     103.355 124.311 146.926  0.00  0.00    +0.000 A 
ATOM      5  C   UNL     1     102.181 124.474 147.723  0.00  0.00    +0.000 A 
ATOM      6  C   UNL     1     102.927 123.852 146.390  0.00  0.00    +0.000 A 
ATOM      7  C   UNL     1     104.640 124.935 147.333  0.00  0.00    +0.000 A 
ATOM      8  C   UNL     1     101.753 124.016 147.188  0.00  0.00    +0.000 A 
ATOM      9  C   UNL     1     102.126 123.705 146.521  0.00  0.00    +0.000 A 
ATOM     10  C   UNL     1     103.417 125.101 148.158  0.00  0.00    +0.000 A 
ATOM     11  C   UNL     1     104.252 125.259 148.027  0.00  0.00    +0.000 A 
ENDROOT
BRANCH   7  13
ATOM     12  O   UNL     1     107.843 125.521 146.798  0.00  0.00    +0.000 OA
ATOM     13  C   UNL     1     105.441 125.082 147.199  0.00  0.00    +0.000 A 
ATOM     14  C   UNL     1     105.673 125.573 146.578  0.00  0.00    +0.000 A 
ATOM     15  C   UNL     1     106.011 124.737 147.686  0.00  0.00    +0.000 A 
ATOM     16  C   UNL     1     106.473 125.720 146.444  0.00  0.00    +0.000 A 
ATOM     17  C   UNL     1     106.811 124.883 147.552  0.00  0.00    +0.000 A 
ATOM     18  C   UNL     1     107.043 125.375 146.931  0.00  0.00    +0.000 A 
BRANCH  16  19
ATOM     19  O   UNL     1     106.704 126.211 145.823  0.00  0.00    +0.000 OA
ATOM     20  C   UNL     1     106.271 126.221 145.121  0.00  0.00    +0.000 C 
ENDBRANCH  16  19
ENDBRANCH   7  13
BRANCH   5  21
ATOM     21  O   UNL     1     101.808 124.785 148.390  0.00  0.00    +0.000 OA
ATOM     22  C   UNL     1     101.729 125.601 148.476  0.00  0.00    +0.000 C 
ENDBRANCH   5  21
BRANCH   6  23
ATOM     23  O   UNL     1     103.300 123.542 145.723  0.00  0.00    +0.000 OA
ATOM     24  C   UNL     1     103.544 122.754 145.716  0.00  0.00    +0.000 C 
ENDBRANCH   6  23
BRANCH   8  25
ATOM     25  O   UNL     1     100.952 123.868 147.319  0.00  0.00    +0.000 OA
ATOM     26  C   UNL     1     100.721 123.218 147.771  0.00  0.00    +0.000 C 
ENDBRANCH   8  25
BRANCH   9  27
ATOM     27  O   UNL     1     101.698 123.246 145.985  0.00  0.00    +0.000 OA
ATOM     28  C   UNL     1     101.235 123.611 145.408  0.00  0.00    +0.000 C 
ENDBRANCH   9  27
TORSDOF 6
ENDMDL
MODEL 3
REMARK VINA RESULT:      -7.4      2.264      3.384
REMARK  Name = 21593928
REMARK  6 active torsions:
REMARK  status: ('A' for Active; 'I' for Inactive)
REMARK    1  A    between atoms: O_2  and  C_11
REMARK    2  A    between atoms: O_3  and  C_12
REMARK    3  A    between atoms: O_4  and  C_14
REMARK    4  A    between atoms: O_5  and  C_15
REMARK    5  A    between atoms: O_7  and  C_21
REMARK    6  A    between atoms: C_13  and  C_18
REMARK                            x       y       z     vdW  Elec       q    Type
REMARK                         _______ _______ _______ _____ _____    ______ ____
ROOT
ATOM      1  O   UNL     1     112.992 127.310 137.338  0.00  0.00    +0.000 OA
ATOM      2  O   UNL     1     114.321 128.420 135.491  0.00  0.00    +0.000 OA
ATOM      3  C   UNL     1     113.469 128.525 136.672  0.00  0.00    +0.000 A 
ATOM      4  C   UNL     1     113.035 128.166 137.275  0.00  0.00    +0.000 A 
ATOM      5  C   UNL     1     113.503 129.348 136.622  0.00  0.00    +0.000 A 
ATOM      6  C   UNL     1     112.635 128.630 137.828  0.00  0.00    +0.000 A 
ATOM      7  C   UNL     1     113.406 126.821 136.765  0.00  0.00    +0.000 A 
ATOM      8  C   UNL     1     113.103 129.811 137.174  0.00  0.00    +0.000 A 
ATOM      9  C   UNL     1     112.669 129.453 137.777  0.00  0.00    +0.000 A 
ATOM     10  C   UNL     1     113.890 128.053 136.091  0.00  0.00    +0.000 A 
ATOM     11  C   UNL     1     113.858 127.195 136.138  0.00  0.00    +0.000 A 
ENDROOT
BRANCH   7  13
ATOM     12  O   UNL     1     113.263 123.532 136.976  0.00  0.00    +0.000 OA
ATOM     13  C   UNL     1     113.371 125.999 136.818  0.00  0.00    +0.000 A 
ATOM     14  C   UNL     1     112.714 125.595 136.525  0.00  0.00    +0.000 A 
ATOM     15  C   UNL     1     113.991 125.580 137.163  0.00  0.00    +0.000 A 
ATOM     16  C   UNL     1     112.677 124.773 136.577  0.00  0.00    +0.000 A 
ATOM     17  C   UNL     1     113.956 124.757 137.216  0.00  0.00    +0.000 A 
ATOM     18  C   UNL     1     113.299 124.353 136.923  0.00  0.00    +0.000 A 
BRANCH  16  19
ATOM     19  O   UNL     1     112.020 124.369 136.284  0.00  0.00    +0.000 OA
ATOM     20  C   UNL     1     111.315 124.774 136.145  0.00  0.00    +0.000 C 
ENDBRANCH  16  19
ENDBRANCH   7  13
BRANCH   5  21
ATOM     21  O   UNL     1     113.936 129.706 136.019  0.00  0.00    +0.000 OA
ATOM     22  C   UNL     1     113.713 129.604 135.232  0.00  0.00    +0.000 C 
ENDBRANCH   5  21
BRANCH   6  23
ATOM     23  O   UNL     1     112.201 128.272 138.430  0.00  0.00    +0.000 OA
ATOM     24  C   UNL     1     112.521 128.209 139.188  0.00  0.00    +0.000 C 
ENDBRANCH   6  23
BRANCH   8  25
ATOM     25  O   UNL     1     113.136 130.634 137.124  0.00  0.00    +0.000 OA
ATOM     26  C   UNL     1     113.747 131.046 137.495  0.00  0.00    +0.000 C 
ENDBRANCH   8  25
BRANCH   9  27
ATOM     27  O   UNL     1     112.269 129.917 138.330  0.00  0.00    +0.000 OA
ATOM     28  C   UNL     1     111.493 130.155 138.183  0.00  0.00    +0.000 C 
ENDBRANCH   9  27
TORSDOF 6
ENDMDL
MODEL 4
REMARK VINA RESULT:      -7.4     10.585     11.577
REMARK  Name = 21593928
REMARK  6 active torsions:
REMARK  status: ('A' for Active; 'I' for Inactive)
REMARK    1  A    between atoms: O_2  and  C_11
REMARK    2  A    between atoms: O_3  and  C_12
REMARK    3  A    between atoms: O_4  and  C_14
REMARK    4  A    between atoms: O_5  and  C_15
REMARK    5  A    between atoms: O_7  and  C_21
REMARK    6  A    between atoms: C_13  and  C_18
REMARK                            x       y       z     vdW  Elec       q    Type
REMARK                         _______ _______ _______ _____ _____    ______ ____
ROOT
ATOM      1  O   UNL     1     106.603 125.553 146.279  0.00  0.00    +0.000 OA
ATOM      2  O   UNL     1     106.941 128.061 146.360  0.00  0.00    +0.000 OA
ATOM      3  C   UNL     1     106.524 126.866 145.633  0.00  0.00    +0.000 A 
ATOM      4  C   UNL     1     106.412 126.049 145.604  0.00  0.00    +0.000 A 
ATOM      5  C   UNL     1     106.337 127.331 144.977  0.00  0.00    +0.000 A 
ATOM      6  C   UNL     1     106.114 125.697 144.919  0.00  0.00    +0.000 A 
ATOM      7  C   UNL     1     106.914 125.914 146.995  0.00  0.00    +0.000 A 
ATOM      8  C   UNL     1     106.039 126.979 144.293  0.00  0.00    +0.000 A 
ATOM      9  C   UNL     1     105.928 126.162 144.264  0.00  0.00    +0.000 A 
ATOM     10  C   UNL     1     106.833 127.244 146.339  0.00  0.00    +0.000 A 
ATOM     11  C   UNL     1     107.030 126.764 147.026  0.00  0.00    +0.000 A 
ENDROOT
BRANCH   7  13
ATOM     12  O   UNL     1     107.655 124.043 149.610  0.00  0.00    +0.000 OA
ATOM     13  C   UNL     1     107.099 125.446 147.649  0.00  0.00    +0.000 A 
ATOM     14  C   UNL     1     106.513 125.247 148.194  0.00  0.00    +0.000 A 
ATOM     15  C   UNL     1     107.871 125.178 147.759  0.00  0.00    +0.000 A 
ATOM     16  C   UNL     1     106.697 124.779 148.847  0.00  0.00    +0.000 A 
ATOM     17  C   UNL     1     108.057 124.710 148.413  0.00  0.00    +0.000 A 
ATOM     18  C   UNL     1     107.470 124.511 148.957  0.00  0.00    +0.000 A 
BRANCH  16  19
ATOM     19  O   UNL     1     106.110 124.580 149.392  0.00  0.00    +0.000 OA
ATOM     20  C   UNL     1     105.315 124.633 149.179  0.00  0.00    +0.000 C 
ENDBRANCH  16  19
ENDBRANCH   7  13
BRANCH   5  21
ATOM     21  O   UNL     1     106.448 128.147 145.006  0.00  0.00    +0.000 OA
ATOM     22  C   UNL     1     107.207 128.458 145.099  0.00  0.00    +0.000 C 
ENDBRANCH   5  21
BRANCH   6  23
ATOM     23  O   UNL     1     106.003 124.881 144.890  0.00  0.00    +0.000 OA
ATOM     24  C   UNL     1     105.254 124.561 145.018  0.00  0.00    +0.000 C 
ENDBRANCH   6  23
BRANCH   8  25
ATOM     25  O   UNL     1     105.852 127.444 143.638  0.00  0.00    +0.000 OA
ATOM     26  C   UNL     1     105.120 127.820 143.593  0.00  0.00    +0.000 C 
ENDBRANCH   8  25
BRANCH   9  27
ATOM     27  O   UNL     1     105.630 125.810 143.580  0.00  0.00    +0.000 OA
ATOM     28  C   UNL     1     106.145 125.576 142.980  0.00  0.00    +0.000 C 
ENDBRANCH   9  27
TORSDOF 6
ENDMDL
MODEL 5
REMARK VINA RESULT:      -7.4      1.098      4.494
REMARK  Name = 21593928
REMARK  6 active torsions:
REMARK  status: ('A' for Active; 'I' for Inactive)
REMARK    1  A    between atoms: O_2  and  C_11
REMARK    2  A    between atoms: O_3  and  C_12
REMARK    3  A    between atoms: O_4  and  C_14
REMARK    4  A    between atoms: O_5  and  C_15
REMARK    5  A    between atoms: O_7  and  C_21
REMARK    6  A    between atoms: C_13  and  C_18
REMARK                            x       y       z     vdW  Elec       q    Type
REMARK                         _______ _______ _______ _____ _____    ______ ____
ROOT
ATOM      1  O   UNL     1     111.348 126.654 136.851  0.00  0.00    +0.000 OA
ATOM      2  O   UNL     1     111.463 124.302 135.922  0.00  0.00    +0.000 OA
ATOM      3  C   UNL     1     112.049 125.375 136.720  0.00  0.00    +0.000 A 
ATOM      4  C   UNL     1     112.014 126.141 137.024  0.00  0.00    +0.000 A 
ATOM      5  C   UNL     1     112.696 124.892 136.893  0.00  0.00    +0.000 A 
ATOM      6  C   UNL     1     112.626 126.424 137.501  0.00  0.00    +0.000 A 
ATOM      7  C   UNL     1     110.708 126.366 136.354  0.00  0.00    +0.000 A 
ATOM      8  C   UNL     1     113.306 125.174 137.370  0.00  0.00    +0.000 A 
ATOM      9  C   UNL     1     113.271 125.940 137.674  0.00  0.00    +0.000 A 
ATOM     10  C   UNL     1     111.420 125.069 136.222  0.00  0.00    +0.000 A 
ATOM     11  C   UNL     1     110.744 125.568 136.038  0.00  0.00    +0.000 A 
ENDROOT
BRANCH   7  13
ATOM     12  O   UNL     1     108.131 128.308 135.668  0.00  0.00    +0.000 OA
ATOM     13  C   UNL     1     110.063 126.851 136.183  0.00  0.00    +0.000 A 
ATOM     14  C   UNL     1     110.117 127.409 135.577  0.00  0.00    +0.000 A 
ATOM     15  C   UNL     1     109.366 126.780 136.617  0.00  0.00    +0.000 A 
ATOM     16  C   UNL     1     109.473 127.894 135.405  0.00  0.00    +0.000 A 
ATOM     17  C   UNL     1     108.721 127.266 136.445  0.00  0.00    +0.000 A 
ATOM     18  C   UNL     1     108.774 127.823 135.839  0.00  0.00    +0.000 A 
BRANCH  16  19
ATOM     19  O   UNL     1     109.526 128.452 134.799  0.00  0.00    +0.000 OA
ATOM     20  C   UNL     1     110.193 128.934 134.739  0.00  0.00    +0.000 C 
ENDBRANCH  16  19
ENDBRANCH   7  13
BRANCH   5  21
ATOM     21  O   UNL     1     112.730 124.126 136.589  0.00  0.00    +0.000 OA
ATOM     22  C   UNL     1     112.208 123.549 136.862  0.00  0.00    +0.000 C 
ENDBRANCH   5  21
BRANCH   6  23
ATOM     23  O   UNL     1     112.591 127.189 137.805  0.00  0.00    +0.000 OA
ATOM     24  C   UNL     1     113.015 127.797 137.443  0.00  0.00    +0.000 C 
ENDBRANCH   6  23
BRANCH   8  25
ATOM     25  O   UNL     1     113.952 124.691 137.543  0.00  0.00    +0.000 OA
ATOM     26  C   UNL     1     114.629 124.722 137.073  0.00  0.00    +0.000 C 
ENDBRANCH   8  25
BRANCH   9  27
ATOM     27  O   UNL     1     113.882 126.223 138.151  0.00  0.00    +0.000 OA
ATOM     28  C   UNL     1     113.816 126.183 138.972  0.00  0.00    +0.000 C 
ENDBRANCH   9  27
TORSDOF 6
ENDMDL
MODEL 6
REMARK VINA RESULT:      -7.3     12.510     13.345
REMARK  Name = 21593928
REMARK  6 active torsions:
REMARK  status: ('A' for Active; 'I' for Inactive)
REMARK    1  A    between atoms: O_2  and  C_11
REMARK    2  A    between atoms: O_3  and  C_12
REMARK    3  A    between atoms: O_4  and  C_14
REMARK    4  A    between atoms: O_5  and  C_15
REMARK    5  A    between atoms: O_7  and  C_21
REMARK    6  A    between atoms: C_13  and  C_18
REMARK                            x       y       z     vdW  Elec       q    Type
REMARK                         _______ _______ _______ _____ _____    ______ ____
ROOT
ATOM      1  O   UNL     1     104.641 124.873 147.328  0.00  0.00    +0.000 OA
ATOM      2  O   UNL     1     104.192 123.798 145.080  0.00  0.00    +0.000 OA
ATOM      3  C   UNL     1     103.757 124.117 146.437  0.00  0.00    +0.000 A 
ATOM      4  C   UNL     1     103.901 124.466 147.171  0.00  0.00    +0.000 A 
ATOM      5  C   UNL     1     103.043 123.729 146.298  0.00  0.00    +0.000 A 
ATOM      6  C   UNL     1     103.330 124.427 147.766  0.00  0.00    +0.000 A 
ATOM      7  C   UNL     1     105.240 124.917 146.713  0.00  0.00    +0.000 A 
ATOM      8  C   UNL     1     102.472 123.690 146.892  0.00  0.00    +0.000 A 
ATOM      9  C   UNL     1     102.615 124.039 147.626  0.00  0.00    +0.000 A 
ATOM     10  C   UNL     1     104.344 124.150 145.810  0.00  0.00    +0.000 A 
ATOM     11  C   UNL     1     105.091 124.553 145.949  0.00  0.00    +0.000 A 
ENDROOT
BRANCH   7  13
ATOM     12  O   UNL     1     108.094 126.472 147.281  0.00  0.00    +0.000 OA
ATOM     13  C   UNL     1     105.954 125.305 146.855  0.00  0.00    +0.000 A 
ATOM     14  C   UNL     1     106.023 126.112 146.695  0.00  0.00    +0.000 A 
ATOM     15  C   UNL     1     106.598 124.889 147.158  0.00  0.00    +0.000 A 
ATOM     16  C   UNL     1     106.736 126.501 146.836  0.00  0.00    +0.000 A 
ATOM     17  C   UNL     1     107.312 125.277 147.300  0.00  0.00    +0.000 A 
ATOM     18  C   UNL     1     107.381 126.084 147.139  0.00  0.00    +0.000 A 
BRANCH  16  19
ATOM     19  O   UNL     1     106.806 127.307 146.675  0.00  0.00    +0.000 OA
ATOM     20  C   UNL     1     106.262 127.677 146.178  0.00  0.00    +0.000 C 
ENDBRANCH  16  19
ENDBRANCH   7  13
BRANCH   5  21
ATOM     21  O   UNL     1     102.899 123.379 145.565  0.00  0.00    +0.000 OA
ATOM     22  C   UNL     1     103.356 122.739 145.316  0.00  0.00    +0.000 C 
ENDBRANCH   5  21
BRANCH   6  23
ATOM     23  O   UNL     1     103.473 124.776 148.498  0.00  0.00    +0.000 OA
ATOM     24  C   UNL     1     103.146 125.512 148.676  0.00  0.00    +0.000 C 
ENDBRANCH   6  23
BRANCH   8  25
ATOM     25  O   UNL     1     101.757 123.302 146.753  0.00  0.00    +0.000 OA
ATOM     26  C   UNL     1     101.123 123.711 146.421  0.00  0.00    +0.000 C 
ENDBRANCH   8  25
BRANCH   9  27
ATOM     27  O   UNL     1     102.044 124.000 148.220  0.00  0.00    +0.000 OA
ATOM     28  C   UNL     1     102.039 123.364 148.746  0.00  0.00    +0.000 C 
ENDBRANCH   9  27
TORSDOF 6
ENDMDL
MODEL 7
REMARK VINA RESULT:      -7.3      2.172      4.126
REMARK  Name = 21593928
REMARK  6 active torsions:
REMARK  status: ('A' for Active; 'I' for Inactive)
REMARK    1  A    between atoms: O_2  and  C_11
REMARK    2  A    between atoms: O_3  and  C_12
REMARK    3  A    between atoms: O_4  and  C_14
REMARK    4  A    between atoms: O_5  and  C_15
REMARK    5  A    between atoms: O_7  and  C_21
REMARK    6  A    between atoms: C_13  and  C_18
REMARK                            x       y       z     vdW  Elec       q    Type
REMARK                         _______ _______ _______ _____ _____    ______ ____
ROOT
ATOM      1  O   UNL     1     112.569 126.524 138.699  0.00  0.00    +0.000 OA
ATOM      2  O   UNL     1     114.617 125.248 137.930  0.00  0.00    +0.000 OA
ATOM      3  C   UNL     1     113.180 125.497 137.851  0.00  0.00    +0.000 A 
ATOM      4  C   UNL     1     112.511 125.912 138.100  0.00  0.00    +0.000 A 
ATOM      5  C   UNL     1     113.111 124.911 137.274  0.00  0.00    +0.000 A 
ATOM      6  C   UNL     1     111.773 125.739 137.772  0.00  0.00    +0.000 A 
ATOM      7  C   UNL     1     113.335 126.708 139.045  0.00  0.00    +0.000 A 
ATOM      8  C   UNL     1     112.374 124.739 136.946  0.00  0.00    +0.000 A 
ATOM      9  C   UNL     1     111.706 125.153 137.195  0.00  0.00    +0.000 A 
ATOM     10  C   UNL     1     113.953 125.667 138.185  0.00  0.00    +0.000 A 
ATOM     11  C   UNL     1     114.031 126.277 138.786  0.00  0.00    +0.000 A 
ENDROOT
BRANCH   7  13
ATOM     12  O   UNL     1     113.597 129.054 141.350  0.00  0.00    +0.000 OA
ATOM     13  C   UNL     1     113.400 127.294 139.621  0.00  0.00    +0.000 A 
ATOM     14  C   UNL     1     113.432 128.088 139.400  0.00  0.00    +0.000 A 
ATOM     15  C   UNL     1     113.434 127.088 140.419  0.00  0.00    +0.000 A 
ATOM     16  C   UNL     1     113.498 128.676 139.975  0.00  0.00    +0.000 A 
ATOM     17  C   UNL     1     113.499 127.674 140.995  0.00  0.00    +0.000 A 
ATOM     18  C   UNL     1     113.531 128.468 140.774  0.00  0.00    +0.000 A 
BRANCH  16  19
ATOM     19  O   UNL     1     113.530 129.470 139.754  0.00  0.00    +0.000 OA
ATOM     20  C   UNL     1     113.106 129.732 139.097  0.00  0.00    +0.000 C 
ENDBRANCH  16  19
ENDBRANCH   7  13
BRANCH   5  21
ATOM     21  O   UNL     1     113.780 124.497 137.025  0.00  0.00    +0.000 OA
ATOM     22  C   UNL     1     114.390 124.894 136.638  0.00  0.00    +0.000 C 
ENDBRANCH   5  21
BRANCH   6  23
ATOM     23  O   UNL     1     111.105 126.153 138.020  0.00  0.00    +0.000 OA
ATOM     24  C   UNL     1     110.590 125.814 138.568  0.00  0.00    +0.000 C 
ENDBRANCH   6  23
BRANCH   8  25
ATOM     25  O   UNL     1     112.305 124.153 136.370  0.00  0.00    +0.000 OA
ATOM     26  C   UNL     1     112.151 123.374 136.589  0.00  0.00    +0.000 C 
ENDBRANCH   8  25
BRANCH   9  27
ATOM     27  O   UNL     1     110.968 124.981 136.867  0.00  0.00    +0.000 OA
ATOM     28  C   UNL     1     110.720 125.371 136.183  0.00  0.00    +0.000 C 
ENDBRANCH   9  27
TORSDOF 6
ENDMDL
MODEL 8
REMARK VINA RESULT:      -7.3      1.803      3.743
REMARK  Name = 21593928
REMARK  6 active torsions:
REMARK  status: ('A' for Active; 'I' for Inactive)
REMARK    1  A    between atoms: O_2  and  C_11
REMARK    2  A    between atoms: O_3  and  C_12
REMARK    3  A    between atoms: O_4  and  C_14
REMARK    4  A    between atoms: O_5  and  C_15
REMARK    5  A    between atoms: O_7  and  C_21
REMARK    6  A    between atoms: C_13  and  C_18
REMARK                            x       y       z     vdW  Elec       q    Type
REMARK                         _______ _______ _______ _____ _____    ______ ____
ROOT
ATOM      1  O   UNL     1     112.736 127.659 136.066  0.00  0.00    +0.000 OA
ATOM      2  O   UNL     1     114.364 125.895 136.871  0.00  0.00    +0.000 OA
ATOM      3  C   UNL     1     113.014 126.277 136.465  0.00  0.00    +0.000 A 
ATOM      4  C   UNL     1     112.482 126.850 136.203  0.00  0.00    +0.000 A 
ATOM      5  C   UNL     1     112.758 125.503 136.593  0.00  0.00    +0.000 A 
ATOM      6  C   UNL     1     111.692 126.649 136.068  0.00  0.00    +0.000 A 
ATOM      7  C   UNL     1     113.556 127.875 136.204  0.00  0.00    +0.000 A 
ATOM      8  C   UNL     1     111.970 125.302 136.459  0.00  0.00    +0.000 A 
ATOM      9  C   UNL     1     111.437 125.875 136.196  0.00  0.00    +0.000 A 
ATOM     10  C   UNL     1     113.838 126.474 136.608  0.00  0.00    +0.000 A 
ATOM     11  C   UNL     1     114.111 127.278 136.477  0.00  0.00    +0.000 A 
ENDROOT
BRANCH   7  13
ATOM     12  O   UNL     1     114.569 130.973 135.690  0.00  0.00    +0.000 OA
ATOM     13  C   UNL     1     113.810 128.649 136.075  0.00  0.00    +0.000 A 
ATOM     14  C   UNL     1     113.734 129.213 136.673  0.00  0.00    +0.000 A 
ATOM     15  C   UNL     1     114.139 128.861 135.349  0.00  0.00    +0.000 A 
ATOM     16  C   UNL     1     113.987 129.987 136.546  0.00  0.00    +0.000 A 
ATOM     17  C   UNL     1     114.392 129.635 135.221  0.00  0.00    +0.000 A 
ATOM     18  C   UNL     1     114.316 130.199 135.819  0.00  0.00    +0.000 A 
BRANCH  16  19
ATOM     19  O   UNL     1     113.911 130.551 137.144  0.00  0.00    +0.000 OA
ATOM     20  C   UNL     1     113.236 130.560 137.618  0.00  0.00    +0.000 C 
ENDBRANCH  16  19
ENDBRANCH   7  13
BRANCH   5  21
ATOM     21  O   UNL     1     113.290 124.931 136.855  0.00  0.00    +0.000 OA
ATOM     22  C   UNL     1     113.919 124.700 136.374  0.00  0.00    +0.000 C 
ENDBRANCH   5  21
BRANCH   6  23
ATOM     23  O   UNL     1     111.160 127.221 135.806  0.00  0.00    +0.000 OA
ATOM     24  C   UNL     1     110.642 127.578 136.340  0.00  0.00    +0.000 C 
ENDBRANCH   6  23
BRANCH   8  25
ATOM     25  O   UNL     1     111.713 124.529 136.586  0.00  0.00    +0.000 OA
ATOM     26  C   UNL     1     111.500 124.284 137.344  0.00  0.00    +0.000 C 
ENDBRANCH   8  25
BRANCH   9  27
ATOM     27  O   UNL     1     110.647 125.674 136.062  0.00  0.00    +0.000 OA
ATOM     28  C   UNL     1     110.408 125.426 135.313  0.00  0.00    +0.000 C 
ENDBRANCH   9  27
TORSDOF 6
ENDMDL
MODEL 9
REMARK VINA RESULT:      -7.3      9.836     11.857
REMARK  Name = 21593928
REMARK  6 active torsions:
REMARK  status: ('A' for Active; 'I' for Inactive)
REMARK    1  A    between atoms: O_2  and  C_11
REMARK    2  A    between atoms: O_3  and  C_12
REMARK    3  A    between atoms: O_4  and  C_14
REMARK    4  A    between atoms: O_5  and  C_15
REMARK    5  A    between atoms: O_7  and  C_21
REMARK    6  A    between atoms: C_13  and  C_18
REMARK                            x       y       z     vdW  Elec       q    Type
REMARK                         _______ _______ _______ _____ _____    ______ ____
ROOT
ATOM      1  O   UNL     1     102.984 131.633 141.070  0.00  0.00    +0.000 OA
ATOM      2  O   UNL     1     100.723 131.896 142.178  0.00  0.00    +0.000 OA
ATOM      3  C   UNL     1     101.955 132.489 141.665  0.00  0.00    +0.000 A 
ATOM      4  C   UNL     1     102.693 132.406 141.305  0.00  0.00    +0.000 A 
ATOM      5  C   UNL     1     101.687 133.237 141.887  0.00  0.00    +0.000 A 
ATOM      6  C   UNL     1     103.161 133.071 141.165  0.00  0.00    +0.000 A 
ATOM      7  C   UNL     1     102.501 130.936 141.212  0.00  0.00    +0.000 A 
ATOM      8  C   UNL     1     102.154 133.901 141.747  0.00  0.00    +0.000 A 
ATOM      9  C   UNL     1     102.891 133.819 141.386  0.00  0.00    +0.000 A 
ATOM     10  C   UNL     1     101.459 131.804 141.816  0.00  0.00    +0.000 A 
ATOM     11  C   UNL     1     101.734 131.022 141.588  0.00  0.00    +0.000 A 
ENDROOT
BRANCH   7  13
ATOM     12  O   UNL     1     103.589 127.950 140.324  0.00  0.00    +0.000 OA
ATOM     13  C   UNL     1     102.773 130.189 140.990  0.00  0.00    +0.000 A 
ATOM     14  C   UNL     1     103.326 129.795 141.459  0.00  0.00    +0.000 A 
ATOM     15  C   UNL     1     102.492 129.836 140.300  0.00  0.00    +0.000 A 
ATOM     16  C   UNL     1     103.598 129.049 141.237  0.00  0.00    +0.000 A 
ATOM     17  C   UNL     1     102.764 129.090 140.077  0.00  0.00    +0.000 A 
ATOM     18  C   UNL     1     103.317 128.696 140.546  0.00  0.00    +0.000 A 
BRANCH  16  19
ATOM     19  O   UNL     1     104.151 128.655 141.706  0.00  0.00    +0.000 OA
ATOM     20  C   UNL     1     104.354 128.957 142.447  0.00  0.00    +0.000 C 
ENDBRANCH  16  19
ENDBRANCH   7  13
BRANCH   5  21
ATOM     21  O   UNL     1     100.950 133.320 142.247  0.00  0.00    +0.000 OA
ATOM     22  C   UNL     1     100.817 132.996 142.994  0.00  0.00    +0.000 C 
ENDBRANCH   5  21
BRANCH   6  23
ATOM     23  O   UNL     1     103.898 132.988 140.804  0.00  0.00    +0.000 OA
ATOM     24  C   UNL     1     103.985 133.155 140.001  0.00  0.00    +0.000 C 
ENDBRANCH   6  23
BRANCH   8  25
ATOM     25  O   UNL     1     101.886 134.650 141.968  0.00  0.00    +0.000 OA
ATOM     26  C   UNL     1     101.441 135.101 141.441  0.00  0.00    +0.000 C 
ENDBRANCH   8  25
BRANCH   9  27
ATOM     27  O   UNL     1     103.360 134.484 141.246  0.00  0.00    +0.000 OA
ATOM     28  C   UNL     1     103.895 134.739 141.820  0.00  0.00    +0.000 C 
ENDBRANCH   9  27
TORSDOF 6
ENDMDL
MODEL 10
REMARK VINA RESULT:      -7.2      2.013      3.655
REMARK  Name = 21593928
REMARK  6 active torsions:
REMARK  status: ('A' for Active; 'I' for Inactive)
REMARK    1  A    between atoms: O_2  and  C_11
REMARK    2  A    between atoms: O_3  and  C_12
REMARK    3  A    between atoms: O_4  and  C_14
REMARK    4  A    between atoms: O_5  and  C_15
REMARK    5  A    between atoms: O_7  and  C_21
REMARK    6  A    between atoms: C_13  and  C_18
REMARK                            x       y       z     vdW  Elec       q    Type
REMARK                         _______ _______ _______ _____ _____    ______ ____
ROOT
ATOM      1  O   UNL     1     113.259 127.922 136.132  0.00  0.00    +0.000 OA
ATOM      2  O   UNL     1     111.107 128.359 134.871  0.00  0.00    +0.000 OA
ATOM      3  C   UNL     1     111.915 127.499 135.731  0.00  0.00    +0.000 A 
ATOM      4  C   UNL     1     112.615 127.354 136.143  0.00  0.00    +0.000 A 
ATOM      5  C   UNL     1     111.304 126.944 135.749  0.00  0.00    +0.000 A 
ATOM      6  C   UNL     1     112.704 126.655 136.573  0.00  0.00    +0.000 A 
ATOM      7  C   UNL     1     113.172 128.653 135.686  0.00  0.00    +0.000 A 
ATOM      8  C   UNL     1     111.393 126.246 136.178  0.00  0.00    +0.000 A 
ATOM      9  C   UNL     1     112.093 126.101 136.590  0.00  0.00    +0.000 A 
ATOM     10  C   UNL     1     111.810 128.222 135.280  0.00  0.00    +0.000 A 
ATOM     11  C   UNL     1     112.444 128.804 135.258  0.00  0.00    +0.000 A 
ENDROOT
BRANCH   7  13
ATOM     12  O   UNL     1     115.623 130.861 135.624  0.00  0.00    +0.000 OA
ATOM     13  C   UNL     1     113.785 129.205 135.670  0.00  0.00    +0.000 A 
ATOM     14  C   UNL     1     113.887 129.727 136.301  0.00  0.00    +0.000 A 
ATOM     15  C   UNL     1     114.297 129.235 135.025  0.00  0.00    +0.000 A 
ATOM     16  C   UNL     1     114.499 130.279 136.286  0.00  0.00    +0.000 A 
ATOM     17  C   UNL     1     114.910 129.787 135.009  0.00  0.00    +0.000 A 
ATOM     18  C   UNL     1     115.011 130.310 135.639  0.00  0.00    +0.000 A 
BRANCH  16  19
ATOM     19  O   UNL     1     114.600 130.801 136.917  0.00  0.00    +0.000 OA
ATOM     20  C   UNL     1     114.031 130.843 137.513  0.00  0.00    +0.000 C 
ENDBRANCH  16  19
ENDBRANCH   7  13
BRANCH   5  21
ATOM     21  O   UNL     1     110.604 127.089 135.337  0.00  0.00    +0.000 OA
ATOM     22  C   UNL     1     110.110 127.708 135.568  0.00  0.00    +0.000 C 
ENDBRANCH   5  21
BRANCH   6  23
ATOM     23  O   UNL     1     113.403 126.510 136.984  0.00  0.00    +0.000 OA
ATOM     24  C   UNL     1     113.974 126.007 136.665  0.00  0.00    +0.000 C 
ENDBRANCH   6  23
BRANCH   8  25
ATOM     25  O   UNL     1     110.782 125.692 136.196  0.00  0.00    +0.000 OA
ATOM     26  C   UNL     1     110.736 125.108 135.616  0.00  0.00    +0.000 C 
ENDBRANCH   8  25
BRANCH   9  27
ATOM     27  O   UNL     1     112.182 125.402 137.020  0.00  0.00    +0.000 OA
ATOM     28  C   UNL     1     111.942 125.370 137.809  0.00  0.00    +0.000 C 
ENDBRANCH   9  27
TORSDOF 6
ENDMDL
