MODEL 1
REMARK VINA RESULT:      -7.9      0.000      0.000
REMARK  Name = 42608056
REMARK  4 active torsions:
REMARK  status: ('A' for Active; 'I' for Inactive)
REMARK    1  A    between atoms: O_5  and  C_18
REMARK    2  A    between atoms: O_6  and  C_20
REMARK    3  A    between atoms: O_7  and  C_22
REMARK    4  A    between atoms: C_8  and  C_10
REMARK                            x       y       z     vdW  Elec       q    Type
REMARK                         _______ _______ _______ _____ _____    ______ ____
ROOT
ATOM      1  O   UNL     1     104.126 124.263 146.852  0.00  0.00    +0.000 OA
ATOM      2  O   UNL     1     102.768 125.949 148.052  0.00  0.00    +0.000 OA
ATOM      3  O   UNL     1     101.553 125.241 147.731  0.00  0.00    +0.000 OA
ATOM      4  C   UNL     1     104.494 124.904 147.218  0.00  0.00    +0.000 C 
ATOM      5  C   UNL     1     104.042 125.466 147.618  0.00  0.00    +0.000 C 
ATOM      6  C   UNL     1     102.853 124.745 147.286  0.00  0.00    +0.000 A 
ATOM      7  C   UNL     1     103.220 125.387 147.652  0.00  0.00    +0.000 C 
ATOM      8  C   UNL     1     103.306 124.183 146.886  0.00  0.00    +0.000 A 
ATOM      9  C   UNL     1     101.997 124.674 147.329  0.00  0.00    +0.000 A 
ATOM     10  C   UNL     1     102.934 123.511 146.501  0.00  0.00    +0.000 A 
ATOM     11  C   UNL     1     102.080 123.423 146.533  0.00  0.00    +0.000 A 
ATOM     12  C   UNL     1     101.609 124.008 146.950  0.00  0.00    +0.000 A 
ENDROOT
BRANCH   4  14
ATOM     13  O   UNL     1     105.418 124.488 148.520  0.00  0.00    +0.000 OA
ATOM     14  C   UNL     1     105.314 124.984 147.184  0.00  0.00    +0.000 A 
ATOM     15  C   UNL     1     105.776 124.775 147.835  0.00  0.00    +0.000 A 
ATOM     16  C   UNL     1     105.673 125.272 146.499  0.00  0.00    +0.000 A 
ATOM     17  C   UNL     1     106.493 125.351 146.465  0.00  0.00    +0.000 A 
ATOM     18  C   UNL     1     106.597 124.855 147.802  0.00  0.00    +0.000 A 
ATOM     19  C   UNL     1     106.955 125.143 147.117  0.00  0.00    +0.000 A 
BRANCH  17  20
ATOM     20  O   UNL     1     106.853 125.639 145.781  0.00  0.00    +0.000 OA
ATOM     21  C   UNL     1     106.389 125.936 145.166  0.00  0.00    +0.000 C 
ENDBRANCH  17  20
BRANCH  19  22
ATOM     22  O   UNL     1     107.776 125.223 147.083  0.00  0.00    +0.000 OA
ATOM     23  C   UNL     1     108.236 125.038 147.742  0.00  0.00    +0.000 C 
ENDBRANCH  19  22
ENDBRANCH   4  14
BRANCH  11  24
ATOM     24  O   UNL     1     101.715 122.780 146.166  0.00  0.00    +0.000 OA
ATOM     25  C   UNL     1     101.356 122.875 145.429  0.00  0.00    +0.000 C 
ENDBRANCH  11  24
TORSDOF 4
ENDMDL
MODEL 2
REMARK VINA RESULT:      -7.8     10.992     12.748
REMARK  Name = 42608056
REMARK  4 active torsions:
REMARK  status: ('A' for Active; 'I' for Inactive)
REMARK    1  A    between atoms: O_5  and  C_18
REMARK    2  A    between atoms: O_6  and  C_20
REMARK    3  A    between atoms: O_7  and  C_22
REMARK    4  A    between atoms: C_8  and  C_10
REMARK                            x       y       z     vdW  Elec       q    Type
REMARK                         _______ _______ _______ _____ _____    ______ ____
ROOT
ATOM      1  O   UNL     1     110.511 127.478 136.290  0.00  0.00    +0.000 OA
ATOM      2  O   UNL     1     108.054 127.349 136.019  0.00  0.00    +0.000 OA
ATOM      3  O   UNL     1     107.989 128.748 135.675  0.00  0.00    +0.000 OA
ATOM      4  C   UNL     1     110.120 126.762 136.414  0.00  0.00    +0.000 C 
ATOM      5  C   UNL     1     109.301 126.719 136.324  0.00  0.00    +0.000 C 
ATOM      6  C   UNL     1     109.265 128.107 135.986  0.00  0.00    +0.000 A 
ATOM      7  C   UNL     1     108.873 127.392 136.109  0.00  0.00    +0.000 C 
ATOM      8  C   UNL     1     110.084 128.150 136.076  0.00  0.00    +0.000 A 
ATOM      9  C   UNL     1     108.808 128.801 135.763  0.00  0.00    +0.000 A 
ATOM     10  C   UNL     1     110.503 128.890 135.950  0.00  0.00    +0.000 A 
ATOM     11  C   UNL     1     110.063 129.594 135.727  0.00  0.00    +0.000 A 
ATOM     12  C   UNL     1     109.210 129.548 135.633  0.00  0.00    +0.000 A 
ENDROOT
BRANCH   4  14
ATOM     13  O   UNL     1     110.650 125.717 135.253  0.00  0.00    +0.000 OA
ATOM     14  C   UNL     1     110.546 126.090 136.628  0.00  0.00    +0.000 A 
ATOM     15  C   UNL     1     110.811 125.568 136.047  0.00  0.00    +0.000 A 
ATOM     16  C   UNL     1     110.709 125.940 137.423  0.00  0.00    +0.000 A 
ATOM     17  C   UNL     1     111.136 125.268 137.637  0.00  0.00    +0.000 A 
ATOM     18  C   UNL     1     111.239 124.894 136.261  0.00  0.00    +0.000 A 
ATOM     19  C   UNL     1     111.401 124.745 137.056  0.00  0.00    +0.000 A 
BRANCH  17  20
ATOM     20  O   UNL     1     111.299 125.117 138.432  0.00  0.00    +0.000 OA
ATOM     21  C   UNL     1     111.232 125.723 138.988  0.00  0.00    +0.000 C 
ENDBRANCH  17  20
BRANCH  19  22
ATOM     22  O   UNL     1     111.828 124.072 137.270  0.00  0.00    +0.000 OA
ATOM     23  C   UNL     1     112.128 123.572 136.688  0.00  0.00    +0.000 C 
ENDBRANCH  19  22
ENDBRANCH   4  14
BRANCH  11  24
ATOM     24  O   UNL     1     110.457 130.308 135.604  0.00  0.00    +0.000 OA
ATOM     25  C   UNL     1     110.600 130.815 136.239  0.00  0.00    +0.000 C 
ENDBRANCH  11  24
TORSDOF 4
ENDMDL
MODEL 3
REMARK VINA RESULT:      -7.7      1.086      4.526
REMARK  Name = 42608056
REMARK  4 active torsions:
REMARK  status: ('A' for Active; 'I' for Inactive)
REMARK    1  A    between atoms: O_5  and  C_18
REMARK    2  A    between atoms: O_6  and  C_20
REMARK    3  A    between atoms: O_7  and  C_22
REMARK    4  A    between atoms: C_8  and  C_10
REMARK                            x       y       z     vdW  Elec       q    Type
REMARK                         _______ _______ _______ _____ _____    ______ ____
ROOT
ATOM      1  O   UNL     1     105.158 125.262 146.735  0.00  0.00    +0.000 OA
ATOM      2  O   UNL     1     106.340 124.179 148.621  0.00  0.00    +0.000 OA
ATOM      3  O   UNL     1     107.466 125.065 148.462  0.00  0.00    +0.000 OA
ATOM      4  C   UNL     1     104.803 124.636 147.139  0.00  0.00    +0.000 C 
ATOM      5  C   UNL     1     105.197 124.275 147.768  0.00  0.00    +0.000 C 
ATOM      6  C   UNL     1     106.299 125.166 147.588  0.00  0.00    +0.000 A 
ATOM      7  C   UNL     1     105.946 124.540 147.993  0.00  0.00    +0.000 C 
ATOM      8  C   UNL     1     105.905 125.527 146.959  0.00  0.00    +0.000 A 
ATOM      9  C   UNL     1     107.080 125.432 147.832  0.00  0.00    +0.000 A 
ATOM     10  C   UNL     1     106.264 126.180 146.531  0.00  0.00    +0.000 A 
ATOM     11  C   UNL     1     107.044 126.460 146.760  0.00  0.00    +0.000 A 
ATOM     12  C   UNL     1     107.454 126.083 147.415  0.00  0.00    +0.000 A 
ENDROOT
BRANCH   4  14
ATOM     13  O   UNL     1     103.458 125.236 147.884  0.00  0.00    +0.000 OA
ATOM     14  C   UNL     1     104.055 124.371 146.915  0.00  0.00    +0.000 A 
ATOM     15  C   UNL     1     103.382 124.671 147.288  0.00  0.00    +0.000 A 
ATOM     16  C   UNL     1     103.978 123.806 146.319  0.00  0.00    +0.000 A 
ATOM     17  C   UNL     1     103.230 123.541 146.095  0.00  0.00    +0.000 A 
ATOM     18  C   UNL     1     102.633 124.406 147.063  0.00  0.00    +0.000 A 
ATOM     19  C   UNL     1     102.558 123.841 146.467  0.00  0.00    +0.000 A 
BRANCH  17  20
ATOM     20  O   UNL     1     103.153 122.977 145.498  0.00  0.00    +0.000 OA
ATOM     21  C   UNL     1     103.816 122.739 145.067  0.00  0.00    +0.000 C 
ENDBRANCH  17  20
BRANCH  19  22
ATOM     22  O   UNL     1     101.809 123.576 146.243  0.00  0.00    +0.000 OA
ATOM     23  C   UNL     1     101.144 123.806 146.673  0.00  0.00    +0.000 C 
ENDBRANCH  19  22
ENDBRANCH   4  14
BRANCH  11  24
ATOM     24  O   UNL     1     107.396 127.086 146.354  0.00  0.00    +0.000 OA
ATOM     25  C   UNL     1     107.076 127.844 146.408  0.00  0.00    +0.000 C 
ENDBRANCH  11  24
TORSDOF 4
ENDMDL
MODEL 4
REMARK VINA RESULT:      -7.7     13.133     13.962
REMARK  Name = 42608056
REMARK  4 active torsions:
REMARK  status: ('A' for Active; 'I' for Inactive)
REMARK    1  A    between atoms: O_5  and  C_18
REMARK    2  A    between atoms: O_6  and  C_20
REMARK    3  A    between atoms: O_7  and  C_22
REMARK    4  A    between atoms: C_8  and  C_10
REMARK                            x       y       z     vdW  Elec       q    Type
REMARK                         _______ _______ _______ _____ _____    ______ ____
ROOT
ATOM      1  O   UNL     1     112.183 127.216 136.188  0.00  0.00    +0.000 OA
ATOM      2  O   UNL     1     113.546 125.289 136.932  0.00  0.00    +0.000 OA
ATOM      3  O   UNL     1     112.517 124.365 136.522  0.00  0.00    +0.000 OA
ATOM      4  C   UNL     1     112.928 127.342 136.520  0.00  0.00    +0.000 C 
ATOM      5  C   UNL     1     113.382 126.699 136.768  0.00  0.00    +0.000 C 
ATOM      6  C   UNL     1     112.347 125.806 136.353  0.00  0.00    +0.000 A 
ATOM      7  C   UNL     1     113.092 125.931 136.684  0.00  0.00    +0.000 C 
ATOM      8  C   UNL     1     111.892 126.449 136.104  0.00  0.00    +0.000 A 
ATOM      9  C   UNL     1     112.055 125.001 136.271  0.00  0.00    +0.000 A 
ATOM     10  C   UNL     1     111.115 126.331 135.758  0.00  0.00    +0.000 A 
ATOM     11  C   UNL     1     110.807 125.534 135.668  0.00  0.00    +0.000 A 
ATOM     12  C   UNL     1     111.281 124.864 135.927  0.00  0.00    +0.000 A 
ENDROOT
BRANCH   4  14
ATOM     13  O   UNL     1     112.637 128.187 137.906  0.00  0.00    +0.000 OA
ATOM     14  C   UNL     1     113.218 128.109 136.603  0.00  0.00    +0.000 A 
ATOM     15  C   UNL     1     113.073 128.531 137.296  0.00  0.00    +0.000 A 
ATOM     16  C   UNL     1     113.655 128.454 135.994  0.00  0.00    +0.000 A 
ATOM     17  C   UNL     1     113.945 129.221 136.077  0.00  0.00    +0.000 A 
ATOM     18  C   UNL     1     113.364 129.300 137.380  0.00  0.00    +0.000 A 
ATOM     19  C   UNL     1     113.800 129.644 136.771  0.00  0.00    +0.000 A 
BRANCH  17  20
ATOM     20  O   UNL     1     114.381 129.567 135.468  0.00  0.00    +0.000 OA
ATOM     21  C   UNL     1     114.636 129.107 134.832  0.00  0.00    +0.000 C 
ENDBRANCH  17  20
BRANCH  19  22
ATOM     22  O   UNL     1     114.090 130.412 136.855  0.00  0.00    +0.000 OA
ATOM     23  C   UNL     1     113.895 130.856 137.520  0.00  0.00    +0.000 C 
ENDBRANCH  19  22
ENDBRANCH   4  14
BRANCH  11  24
ATOM     24  O   UNL     1     110.062 125.412 135.336  0.00  0.00    +0.000 OA
ATOM     25  C   UNL     1     109.869 125.761 134.614  0.00  0.00    +0.000 C 
ENDBRANCH  11  24
TORSDOF 4
ENDMDL
MODEL 5
REMARK VINA RESULT:      -7.6     13.172     14.636
REMARK  Name = 42608056
REMARK  4 active torsions:
REMARK  status: ('A' for Active; 'I' for Inactive)
REMARK    1  A    between atoms: O_5  and  C_18
REMARK    2  A    between atoms: O_6  and  C_20
REMARK    3  A    between atoms: O_7  and  C_22
REMARK    4  A    between atoms: C_8  and  C_10
REMARK                            x       y       z     vdW  Elec       q    Type
REMARK                         _______ _______ _______ _____ _____    ______ ____
ROOT
ATOM      1  O   UNL     1     113.585 127.652 136.059  0.00  0.00    +0.000 OA
ATOM      2  O   UNL     1     112.921 128.973 138.044  0.00  0.00    +0.000 OA
ATOM      3  O   UNL     1     113.420 130.184 137.441  0.00  0.00    +0.000 OA
ATOM      4  C   UNL     1     113.223 127.279 136.700  0.00  0.00    +0.000 C 
ATOM      5  C   UNL     1     113.002 127.719 137.362  0.00  0.00    +0.000 C 
ATOM      6  C   UNL     1     113.504 128.904 136.741  0.00  0.00    +0.000 A 
ATOM      7  C   UNL     1     113.143 128.533 137.382  0.00  0.00    +0.000 C 
ATOM      8  C   UNL     1     113.726 128.464 136.079  0.00  0.00    +0.000 A 
ATOM      9  C   UNL     1     113.645 129.752 136.775  0.00  0.00    +0.000 A 
ATOM     10  C   UNL     1     114.104 128.841 135.405  0.00  0.00    +0.000 A 
ATOM     11  C   UNL     1     114.252 129.686 135.421  0.00  0.00    +0.000 A 
ATOM     12  C   UNL     1     114.022 130.145 136.111  0.00  0.00    +0.000 A 
ENDROOT
BRANCH   4  14
ATOM     13  O   UNL     1     111.803 126.703 136.089  0.00  0.00    +0.000 OA
ATOM     14  C   UNL     1     113.083 126.467 136.680  0.00  0.00    +0.000 A 
ATOM     15  C   UNL     1     112.373 126.179 136.374  0.00  0.00    +0.000 A 
ATOM     16  C   UNL     1     113.652 125.942 136.965  0.00  0.00    +0.000 A 
ATOM     17  C   UNL     1     113.512 125.130 136.944  0.00  0.00    +0.000 A 
ATOM     18  C   UNL     1     112.232 125.365 136.354  0.00  0.00    +0.000 A 
ATOM     19  C   UNL     1     112.802 124.841 136.639  0.00  0.00    +0.000 A 
BRANCH  17  20
ATOM     20  O   UNL     1     114.081 124.604 137.229  0.00  0.00    +0.000 OA
ATOM     21  C   UNL     1     114.860 124.856 137.329  0.00  0.00    +0.000 C 
ENDBRANCH  17  20
BRANCH  19  22
ATOM     22  O   UNL     1     112.661 124.028 136.619  0.00  0.00    +0.000 OA
ATOM     23  C   UNL     1     111.896 123.745 136.498  0.00  0.00    +0.000 C 
ENDBRANCH  19  22
ENDBRANCH   4  14
BRANCH  11  24
ATOM     24  O   UNL     1     114.614 130.056 134.778  0.00  0.00    +0.000 OA
ATOM     25  C   UNL     1     115.385 130.343 134.848  0.00  0.00    +0.000 C 
ENDBRANCH  11  24
TORSDOF 4
ENDMDL
MODEL 6
REMARK VINA RESULT:      -7.6      9.939     12.023
REMARK  Name = 42608056
REMARK  4 active torsions:
REMARK  status: ('A' for Active; 'I' for Inactive)
REMARK    1  A    between atoms: O_5  and  C_18
REMARK    2  A    between atoms: O_6  and  C_20
REMARK    3  A    between atoms: O_7  and  C_22
REMARK    4  A    between atoms: C_8  and  C_10
REMARK                            x       y       z     vdW  Elec       q    Type
REMARK                         _______ _______ _______ _____ _____    ______ ____
ROOT
ATOM      1  O   UNL     1     112.119 126.358 138.560  0.00  0.00    +0.000 OA
ATOM      2  O   UNL     1     110.544 125.842 140.398  0.00  0.00    +0.000 OA
ATOM      3  O   UNL     1     111.455 126.390 141.372  0.00  0.00    +0.000 OA
ATOM      4  C   UNL     1     111.396 125.997 138.394  0.00  0.00    +0.000 C 
ATOM      5  C   UNL     1     110.871 125.825 139.006  0.00  0.00    +0.000 C 
ATOM      6  C   UNL     1     111.792 126.374 139.950  0.00  0.00    +0.000 A 
ATOM      7  C   UNL     1     111.069 126.014 139.785  0.00  0.00    +0.000 C 
ATOM      8  C   UNL     1     112.317 126.546 139.338  0.00  0.00    +0.000 A 
ATOM      9  C   UNL     1     111.987 126.566 140.766  0.00  0.00    +0.000 A 
ATOM     10  C   UNL     1     113.074 126.922 139.498  0.00  0.00    +0.000 A 
ATOM     11  C   UNL     1     113.286 127.120 140.306  0.00  0.00    +0.000 A 
ATOM     12  C   UNL     1     112.738 126.941 140.945  0.00  0.00    +0.000 A 
ENDROOT
BRANCH   4  14
ATOM     13  O   UNL     1     110.475 127.037 137.502  0.00  0.00    +0.000 OA
ATOM     14  C   UNL     1     111.197 125.809 137.616  0.00  0.00    +0.000 A 
ATOM     15  C   UNL     1     110.737 126.329 137.170  0.00  0.00    +0.000 A 
ATOM     16  C   UNL     1     111.459 125.101 137.283  0.00  0.00    +0.000 A 
ATOM     17  C   UNL     1     111.261 124.912 136.505  0.00  0.00    +0.000 A 
ATOM     18  C   UNL     1     110.539 126.140 136.391  0.00  0.00    +0.000 A 
ATOM     19  C   UNL     1     110.801 125.432 136.059  0.00  0.00    +0.000 A 
BRANCH  17  20
ATOM     20  O   UNL     1     111.522 124.204 136.172  0.00  0.00    +0.000 OA
ATOM     21  C   UNL     1     112.034 123.714 136.595  0.00  0.00    +0.000 C 
ENDBRANCH  17  20
BRANCH  19  22
ATOM     22  O   UNL     1     110.602 125.244 135.280  0.00  0.00    +0.000 OA
ATOM     23  C   UNL     1     110.116 125.747 134.846  0.00  0.00    +0.000 C 
ENDBRANCH  19  22
ENDBRANCH   4  14
BRANCH  11  24
ATOM     24  O   UNL     1     114.009 127.481 140.469  0.00  0.00    +0.000 OA
ATOM     25  C   UNL     1     114.596 127.064 140.874  0.00  0.00    +0.000 C 
ENDBRANCH  11  24
TORSDOF 4
ENDMDL
MODEL 7
REMARK VINA RESULT:      -7.6     10.697     13.357
REMARK  Name = 42608056
REMARK  4 active torsions:
REMARK  status: ('A' for Active; 'I' for Inactive)
REMARK    1  A    between atoms: O_5  and  C_18
REMARK    2  A    between atoms: O_6  and  C_20
REMARK    3  A    between atoms: O_7  and  C_22
REMARK    4  A    between atoms: C_8  and  C_10
REMARK                            x       y       z     vdW  Elec       q    Type
REMARK                         _______ _______ _______ _____ _____    ______ ____
ROOT
ATOM      1  O   UNL     1     112.045 125.849 136.605  0.00  0.00    +0.000 OA
ATOM      2  O   UNL     1     111.824 123.454 137.187  0.00  0.00    +0.000 OA
ATOM      3  O   UNL     1     113.257 123.284 137.158  0.00  0.00    +0.000 OA
ATOM      4  C   UNL     1     111.297 125.520 136.720  0.00  0.00    +0.000 C 
ATOM      5  C   UNL     1     111.224 124.722 136.914  0.00  0.00    +0.000 C 
ATOM      6  C   UNL     1     112.645 124.582 136.878  0.00  0.00    +0.000 A 
ATOM      7  C   UNL     1     111.898 124.252 136.993  0.00  0.00    +0.000 C 
ATOM      8  C   UNL     1     112.719 125.380 136.684  0.00  0.00    +0.000 A 
ATOM      9  C   UNL     1     113.340 124.082 136.963  0.00  0.00    +0.000 A 
ATOM     10  C   UNL     1     113.493 125.735 136.562  0.00  0.00    +0.000 A 
ATOM     11  C   UNL     1     114.198 125.252 136.643  0.00  0.00    +0.000 A 
ATOM     12  C   UNL     1     114.121 124.419 136.845  0.00  0.00    +0.000 A 
ENDROOT
BRANCH   4  14
ATOM     13  O   UNL     1     110.545 125.643 135.256  0.00  0.00    +0.000 OA
ATOM     14  C   UNL     1     110.624 125.989 136.641  0.00  0.00    +0.000 A 
ATOM     15  C   UNL     1     110.248 126.050 135.909  0.00  0.00    +0.000 A 
ATOM     16  C   UNL     1     110.325 126.397 137.293  0.00  0.00    +0.000 A 
ATOM     17  C   UNL     1     109.652 126.865 137.214  0.00  0.00    +0.000 A 
ATOM     18  C   UNL     1     109.573 126.520 135.829  0.00  0.00    +0.000 A 
ATOM     19  C   UNL     1     109.275 126.927 136.482  0.00  0.00    +0.000 A 
BRANCH  17  20
ATOM     20  O   UNL     1     109.353 127.273 137.866  0.00  0.00    +0.000 OA
ATOM     21  C   UNL     1     109.748 127.239 138.590  0.00  0.00    +0.000 C 
ENDBRANCH  17  20
BRANCH  19  22
ATOM     22  O   UNL     1     108.601 127.396 136.403  0.00  0.00    +0.000 OA
ATOM     23  C   UNL     1     108.475 127.822 135.709  0.00  0.00    +0.000 C 
ENDBRANCH  19  22
ENDBRANCH   4  14
BRANCH  11  24
ATOM     24  O   UNL     1     114.944 125.583 136.527  0.00  0.00    +0.000 OA
ATOM     25  C   UNL     1     115.316 125.518 135.794  0.00  0.00    +0.000 C 
ENDBRANCH  11  24
TORSDOF 4
ENDMDL
MODEL 8
REMARK VINA RESULT:      -7.5      9.965     12.354
REMARK  Name = 42608056
REMARK  4 active torsions:
REMARK  status: ('A' for Active; 'I' for Inactive)
REMARK    1  A    between atoms: O_5  and  C_18
REMARK    2  A    between atoms: O_6  and  C_20
REMARK    3  A    between atoms: O_7  and  C_22
REMARK    4  A    between atoms: C_8  and  C_10
REMARK                            x       y       z     vdW  Elec       q    Type
REMARK                         _______ _______ _______ _____ _____    ______ ____
ROOT
ATOM      1  O   UNL     1     111.998 126.502 137.482  0.00  0.00    +0.000 OA
ATOM      2  O   UNL     1     111.702 124.070 137.128  0.00  0.00    +0.000 OA
ATOM      3  O   UNL     1     111.084 124.302 135.846  0.00  0.00    +0.000 OA
ATOM      4  C   UNL     1     112.254 125.968 138.057  0.00  0.00    +0.000 C 
ATOM      5  C   UNL     1     112.155 125.157 137.939  0.00  0.00    +0.000 C 
ATOM      6  C   UNL     1     111.546 125.416 136.673  0.00  0.00    +0.000 A 
ATOM      7  C   UNL     1     111.801 124.881 137.246  0.00  0.00    +0.000 C 
ATOM      8  C   UNL     1     111.645 126.226 136.791  0.00  0.00    +0.000 A 
ATOM      9  C   UNL     1     111.178 125.115 135.955  0.00  0.00    +0.000 A 
ATOM     10  C   UNL     1     111.383 126.793 136.200  0.00  0.00    +0.000 A 
ATOM     11  C   UNL     1     111.013 126.511 135.477  0.00  0.00    +0.000 A 
ATOM     12  C   UNL     1     110.910 125.666 135.354  0.00  0.00    +0.000 A 
ENDROOT
BRANCH   4  14
ATOM     13  O   UNL     1     113.894 126.132 138.135  0.00  0.00    +0.000 OA
ATOM     14  C   UNL     1     112.608 126.243 138.749  0.00  0.00    +0.000 A 
ATOM     15  C   UNL     1     113.428 126.325 138.788  0.00  0.00    +0.000 A 
ATOM     16  C   UNL     1     112.143 126.437 139.402  0.00  0.00    +0.000 A 
ATOM     17  C   UNL     1     112.496 126.713 140.094  0.00  0.00    +0.000 A 
ATOM     18  C   UNL     1     113.783 126.601 139.481  0.00  0.00    +0.000 A 
ATOM     19  C   UNL     1     113.316 126.795 140.133  0.00  0.00    +0.000 A 
BRANCH  17  20
ATOM     20  O   UNL     1     112.031 126.907 140.747  0.00  0.00    +0.000 OA
ATOM     21  C   UNL     1     111.234 126.696 140.762  0.00  0.00    +0.000 C 
ENDBRANCH  17  20
BRANCH  19  22
ATOM     22  O   UNL     1     113.671 127.071 140.826  0.00  0.00    +0.000 OA
ATOM     23  C   UNL     1     114.488 127.173 140.858  0.00  0.00    +0.000 C 
ENDBRANCH  19  22
ENDBRANCH   4  14
BRANCH  11  24
ATOM     24  O   UNL     1     110.759 127.048 134.904  0.00  0.00    +0.000 OA
ATOM     25  C   UNL     1     109.996 127.360 134.942  0.00  0.00    +0.000 C 
ENDBRANCH  11  24
TORSDOF 4
ENDMDL
MODEL 9
REMARK VINA RESULT:      -7.5      2.501      4.156
REMARK  Name = 42608056
REMARK  4 active torsions:
REMARK  status: ('A' for Active; 'I' for Inactive)
REMARK    1  A    between atoms: O_5  and  C_18
REMARK    2  A    between atoms: O_6  and  C_20
REMARK    3  A    between atoms: O_7  and  C_22
REMARK    4  A    between atoms: C_8  and  C_10
REMARK                            x       y       z     vdW  Elec       q    Type
REMARK                         _______ _______ _______ _____ _____    ______ ____
ROOT
ATOM      1  O   UNL     1     106.190 126.359 146.267  0.00  0.00    +0.000 OA
ATOM      2  O   UNL     1     106.010 124.765 144.382  0.00  0.00    +0.000 OA
ATOM      3  O   UNL     1     105.683 125.835 143.471  0.00  0.00    +0.000 OA
ATOM      4  C   UNL     1     106.321 125.554 146.394  0.00  0.00    +0.000 C 
ATOM      5  C   UNL     1     106.261 125.023 145.766  0.00  0.00    +0.000 C 
ATOM      6  C   UNL     1     105.939 126.101 144.885  0.00  0.00    +0.000 A 
ATOM      7  C   UNL     1     106.070 125.297 145.011  0.00  0.00    +0.000 C 
ATOM      8  C   UNL     1     106.000 126.633 145.513  0.00  0.00    +0.000 A 
ATOM      9  C   UNL     1     105.741 126.374 144.093  0.00  0.00    +0.000 A 
ATOM     10  C   UNL     1     105.866 127.474 145.394  0.00  0.00    +0.000 A 
ATOM     11  C   UNL     1     105.667 127.764 144.611  0.00  0.00    +0.000 A 
ATOM     12  C   UNL     1     105.604 127.210 143.956  0.00  0.00    +0.000 A 
ENDROOT
BRANCH   4  14
ATOM     13  O   UNL     1     107.899 125.479 146.869  0.00  0.00    +0.000 OA
ATOM     14  C   UNL     1     106.512 125.281 147.148  0.00  0.00    +0.000 A 
ATOM     15  C   UNL     1     107.301 125.243 147.386  0.00  0.00    +0.000 A 
ATOM     16  C   UNL     1     105.914 125.045 147.666  0.00  0.00    +0.000 A 
ATOM     17  C   UNL     1     106.104 124.772 148.420  0.00  0.00    +0.000 A 
ATOM     18  C   UNL     1     107.492 124.969 148.141  0.00  0.00    +0.000 A 
ATOM     19  C   UNL     1     106.893 124.734 148.657  0.00  0.00    +0.000 A 
BRANCH  17  20
ATOM     20  O   UNL     1     105.506 124.536 148.937  0.00  0.00    +0.000 OA
ATOM     21  C   UNL     1     104.720 124.725 148.772  0.00  0.00    +0.000 C 
ENDBRANCH  17  20
BRANCH  19  22
ATOM     22  O   UNL     1     107.085 124.460 149.412  0.00  0.00    +0.000 OA
ATOM     23  C   UNL     1     107.871 124.315 149.611  0.00  0.00    +0.000 C 
ENDBRANCH  19  22
ENDBRANCH   4  14
BRANCH  11  24
ATOM     24  O   UNL     1     105.537 128.569 144.487  0.00  0.00    +0.000 OA
ATOM     25  C   UNL     1     106.167 129.063 144.287  0.00  0.00    +0.000 C 
ENDBRANCH  11  24
TORSDOF 4
ENDMDL
MODEL 10
REMARK VINA RESULT:      -7.5     12.748     13.779
REMARK  Name = 42608056
REMARK  4 active torsions:
REMARK  status: ('A' for Active; 'I' for Inactive)
REMARK    1  A    between atoms: O_5  and  C_18
REMARK    2  A    between atoms: O_6  and  C_20
REMARK    3  A    between atoms: O_7  and  C_22
REMARK    4  A    between atoms: C_8  and  C_10
REMARK                            x       y       z     vdW  Elec       q    Type
REMARK                         _______ _______ _______ _____ _____    ______ ____
ROOT
ATOM      1  O   UNL     1     112.390 126.580 136.577  0.00  0.00    +0.000 OA
ATOM      2  O   UNL     1     110.788 124.968 135.597  0.00  0.00    +0.000 OA
ATOM      3  O   UNL     1     111.602 123.856 136.022  0.00  0.00    +0.000 OA
ATOM      4  C   UNL     1     111.711 126.853 136.197  0.00  0.00    +0.000 C 
ATOM      5  C   UNL     1     111.177 126.316 135.871  0.00  0.00    +0.000 C 
ATOM      6  C   UNL     1     112.002 125.233 136.303  0.00  0.00    +0.000 A 
ATOM      7  C   UNL     1     111.322 125.505 135.924  0.00  0.00    +0.000 C 
ATOM      8  C   UNL     1     112.536 125.770 136.630  0.00  0.00    +0.000 A 
ATOM      9  C   UNL     1     112.142 124.385 136.352  0.00  0.00    +0.000 A 
ATOM     10  C   UNL     1     113.248 125.498 137.028  0.00  0.00    +0.000 A 
ATOM     11  C   UNL     1     113.405 124.655 137.086  0.00  0.00    +0.000 A 
ATOM     12  C   UNL     1     112.848 124.095 136.745  0.00  0.00    +0.000 A 
ENDROOT
BRANCH   4  14
ATOM     13  O   UNL     1     110.714 127.585 137.290  0.00  0.00    +0.000 OA
ATOM     14  C   UNL     1     111.565 127.663 136.144  0.00  0.00    +0.000 A 
ATOM     15  C   UNL     1     111.067 128.029 136.691  0.00  0.00    +0.000 A 
ATOM     16  C   UNL     1     111.917 128.108 135.545  0.00  0.00    +0.000 A 
ATOM     17  C   UNL     1     111.771 128.918 135.492  0.00  0.00    +0.000 A 
ATOM     18  C   UNL     1     110.921 128.840 136.638  0.00  0.00    +0.000 A 
ATOM     19  C   UNL     1     111.273 129.284 136.039  0.00  0.00    +0.000 A 
BRANCH  17  20
ATOM     20  O   UNL     1     112.123 129.363 134.893  0.00  0.00    +0.000 OA
ATOM     21  C   UNL     1     112.874 129.160 134.616  0.00  0.00    +0.000 C 
ENDBRANCH  17  20
BRANCH  19  22
ATOM     22  O   UNL     1     111.127 130.094 135.986  0.00  0.00    +0.000 OA
ATOM     23  C   UNL     1     110.553 130.442 136.464  0.00  0.00    +0.000 C 
ENDBRANCH  19  22
ENDBRANCH   4  14
BRANCH  11  24
ATOM     24  O   UNL     1     114.085 124.385 137.466  0.00  0.00    +0.000 OA
ATOM     25  C   UNL     1     114.818 124.719 137.287  0.00  0.00    +0.000 C 
ENDBRANCH  11  24
TORSDOF 4
ENDMDL
