MODEL 1
REMARK VINA RESULT:     -11.0      0.000      0.000
REMARK  Name = 5488886
REMARK  5 active torsions:
REMARK  status: ('A' for Active; 'I' for Inactive)
REMARK    1  A    between atoms: O_6  and  C_26
REMARK    2  A    between atoms: O_6  and  C_35
REMARK    3  A    between atoms: C_17  and  C_20
REMARK    4  A    between atoms: C_19  and  C_24
REMARK    5  A    between atoms: C_33  and  C_37
REMARK                            x       y       z     vdW  Elec       q    Type
REMARK                         _______ _______ _______ _____ _____    ______ ____
ROOT
ATOM      1  O   UNL     1     110.324 128.317 136.130  0.00  0.00    +0.000 OA
ATOM      2  O   UNL     1     110.471 131.182 136.395  0.00  0.00    +0.000 OA
ATOM      3  O   UNL     1     107.961 129.954 135.797  0.00  0.00    +0.000 OA
ATOM      4  O   UNL     1     107.845 128.523 135.657  0.00  0.00    +0.000 OA
ATOM      5  C   UNL     1     110.384 129.762 136.261  0.00  0.00    +0.000 A 
ATOM      6  C   UNL     1     109.937 129.085 136.116  0.00  0.00    +0.000 A 
ATOM      7  C   UNL     1     110.024 130.504 136.251  0.00  0.00    +0.000 A 
ATOM      8  C   UNL     1     109.129 129.149 135.962  0.00  0.00    +0.000 A 
ATOM      9  C   UNL     1     109.216 130.569 136.096  0.00  0.00    +0.000 A 
ATOM     10  C   UNL     1     108.768 129.891 135.952  0.00  0.00    +0.000 A 
ATOM     11  C   UNL     1     109.863 127.608 135.980  0.00  0.00    +0.000 A 
ATOM     12  C   UNL     1     108.652 128.450 135.810  0.00  0.00    +0.000 A 
ATOM     13  C   UNL     1     109.022 127.674 135.819  0.00  0.00    +0.000 A 
ENDROOT
BRANCH   5  20
ATOM     14  O   UNL     1     111.728 129.640 135.791  0.00  0.00    +0.000 OA
ATOM     15  O   UNL     1     110.927 129.750 137.818  0.00  0.00    +0.000 OA
ATOM     16  O   UNL     1     112.543 129.622 138.127  0.00  0.00    +0.000 OA
ATOM     17  O   UNL     1     113.615 129.507 136.878  0.00  0.00    +0.000 OA
ATOM     18  C   UNL     1     111.463 129.692 137.194  0.00  0.00    +0.000 C 
ATOM     19  C   UNL     1     112.271 129.628 137.348  0.00  0.00    +0.000 C 
ATOM     20  C   UNL     1     111.192 129.698 136.415  0.00  0.00    +0.000 C 
ATOM     21  C   UNL     1     112.807 129.571 136.724  0.00  0.00    +0.000 C 
ATOM     22  C   UNL     1     112.536 129.577 135.945  0.00  0.00    +0.000 C 
BRANCH  22  24
ATOM     23  O   UNL     1     112.842 129.163 134.612  0.00  0.00    +0.000 OA
ATOM     24  C   UNL     1     113.072 129.519 135.321  0.00  0.00    +0.000 C 
ENDBRANCH  22  24
ENDBRANCH   5  20
BRANCH  11  26
ATOM     25  C   UNL     1     110.953 125.386 136.013  0.00  0.00    +0.000 A 
ATOM     26  C   UNL     1     110.227 126.867 135.991  0.00  0.00    +0.000 A 
ATOM     27  C   UNL     1     110.898 125.808 135.306  0.00  0.00    +0.000 A 
ATOM     28  C   UNL     1     110.645 125.704 136.709  0.00  0.00    +0.000 A 
ATOM     29  C   UNL     1     110.535 126.548 135.296  0.00  0.00    +0.000 A 
ATOM     30  C   UNL     1     110.282 126.444 136.698  0.00  0.00    +0.000 A 
BRANCH  25  31
ATOM     31  O   UNL     1     111.317 124.645 136.023  0.00  0.00    +0.000 OA
BRANCH  31  40
ATOM     32  O   UNL     1     112.633 125.162 136.228  0.00  0.00    +0.000 OA
ATOM     33  O   UNL     1     113.241 123.118 137.483  0.00  0.00    +0.000 OA
ATOM     34  O   UNL     1     114.355 124.316 137.269  0.00  0.00    +0.000 OA
ATOM     35  O   UNL     1     111.722 123.282 136.860  0.00  0.00    +0.000 OA
ATOM     36  C   UNL     1     113.038 123.799 137.065  0.00  0.00    +0.000 C 
ATOM     37  C   UNL     1     113.595 124.398 136.958  0.00  0.00    +0.000 C 
ATOM     38  C   UNL     1     112.280 123.881 136.754  0.00  0.00    +0.000 C 
ATOM     39  C   UNL     1     113.392 125.080 136.539  0.00  0.00    +0.000 C 
ATOM     40  C   UNL     1     112.077 124.564 136.335  0.00  0.00    +0.000 C 
ATOM     41  C   UNL     1     113.950 125.679 136.432  0.00  0.00    +0.000 C 
ENDBRANCH  31  40
ENDBRANCH  25  31
ENDBRANCH  11  26
TORSDOF 5
ENDMDL
MODEL 2
REMARK VINA RESULT:     -11.0      1.349      5.838
REMARK  Name = 5488886
REMARK  5 active torsions:
REMARK  status: ('A' for Active; 'I' for Inactive)
REMARK    1  A    between atoms: O_6  and  C_26
REMARK    2  A    between atoms: O_6  and  C_35
REMARK    3  A    between atoms: C_17  and  C_20
REMARK    4  A    between atoms: C_19  and  C_24
REMARK    5  A    between atoms: C_33  and  C_37
REMARK                            x       y       z     vdW  Elec       q    Type
REMARK                         _______ _______ _______ _____ _____    ______ ____
ROOT
ATOM      1  O   UNL     1     112.581 126.554 136.741  0.00  0.00    +0.000 OA
ATOM      2  O   UNL     1     111.443 123.920 137.009  0.00  0.00    +0.000 OA
ATOM      3  O   UNL     1     114.263 124.201 136.645  0.00  0.00    +0.000 OA
ATOM      4  O   UNL     1     114.872 125.502 136.507  0.00  0.00    +0.000 OA
ATOM      5  C   UNL     1     112.020 125.221 136.875  0.00  0.00    +0.000 A 
ATOM      6  C   UNL     1     112.682 125.700 136.770  0.00  0.00    +0.000 A 
ATOM      7  C   UNL     1     112.105 124.401 136.904  0.00  0.00    +0.000 A 
ATOM      8  C   UNL     1     113.430 125.361 136.693  0.00  0.00    +0.000 A 
ATOM      9  C   UNL     1     112.853 124.060 136.827  0.00  0.00    +0.000 A 
ATOM     10  C   UNL     1     113.515 124.541 136.722  0.00  0.00    +0.000 A 
ATOM     11  C   UNL     1     113.266 127.059 136.632  0.00  0.00    +0.000 A 
ATOM     12  C   UNL     1     114.128 125.850 136.583  0.00  0.00    +0.000 A 
ATOM     13  C   UNL     1     114.046 126.706 136.552  0.00  0.00    +0.000 A 
ENDROOT
BRANCH   5  20
ATOM     14  O   UNL     1     110.849 125.782 136.279  0.00  0.00    +0.000 OA
ATOM     15  O   UNL     1     111.372 125.457 138.372  0.00  0.00    +0.000 OA
ATOM     16  O   UNL     1     109.875 126.136 138.527  0.00  0.00    +0.000 OA
ATOM     17  O   UNL     1     109.028 126.579 137.181  0.00  0.00    +0.000 OA
ATOM     18  C   UNL     1     110.948 125.678 137.701  0.00  0.00    +0.000 C 
ATOM     19  C   UNL     1     110.200 126.018 137.777  0.00  0.00    +0.000 C 
ATOM     20  C   UNL     1     111.272 125.560 136.951  0.00  0.00    +0.000 C 
ATOM     21  C   UNL     1     109.776 126.239 137.105  0.00  0.00    +0.000 C 
ATOM     22  C   UNL     1     110.101 126.121 136.355  0.00  0.00    +0.000 C 
BRANCH  22  24
ATOM     23  O   UNL     1     109.755 125.908 134.986  0.00  0.00    +0.000 OA
ATOM     24  C   UNL     1     109.678 126.343 135.683  0.00  0.00    +0.000 C 
ENDBRANCH  22  24
ENDBRANCH   5  20
BRANCH  11  26
ATOM     25  C   UNL     1     113.000 129.518 136.546  0.00  0.00    +0.000 A 
ATOM     26  C   UNL     1     113.178 127.879 136.603  0.00  0.00    +0.000 A 
ATOM     27  C   UNL     1     113.050 129.134 137.274  0.00  0.00    +0.000 A 
ATOM     28  C   UNL     1     113.039 129.084 135.846  0.00  0.00    +0.000 A 
ATOM     29  C   UNL     1     113.138 128.314 137.303  0.00  0.00    +0.000 A 
ATOM     30  C   UNL     1     113.128 128.264 135.875  0.00  0.00    +0.000 A 
BRANCH  25  31
ATOM     31  O   UNL     1     112.912 130.338 136.518  0.00  0.00    +0.000 OA
BRANCH  31  40
ATOM     32  O   UNL     1     111.512 130.359 136.231  0.00  0.00    +0.000 OA
ATOM     33  O   UNL     1     111.238 132.323 137.712  0.00  0.00    +0.000 OA
ATOM     34  O   UNL     1     109.930 131.690 136.931  0.00  0.00    +0.000 OA
ATOM     35  O   UNL     1     112.729 131.647 137.505  0.00  0.00    +0.000 OA
ATOM     36  C   UNL     1     111.329 131.669 137.218  0.00  0.00    +0.000 C 
ATOM     37  C   UNL     1     110.676 131.352 136.828  0.00  0.00    +0.000 C 
ATOM     38  C   UNL     1     112.074 131.331 137.115  0.00  0.00    +0.000 C 
ATOM     39  C   UNL     1     110.767 130.697 136.334  0.00  0.00    +0.000 C 
ATOM     40  C   UNL     1     112.166 130.676 136.621  0.00  0.00    +0.000 C 
ATOM     41  C   UNL     1     110.112 130.380 135.944  0.00  0.00    +0.000 C 
ENDBRANCH  31  40
ENDBRANCH  25  31
ENDBRANCH  11  26
TORSDOF 5
ENDMDL
MODEL 3
REMARK VINA RESULT:     -10.8      1.287      5.163
REMARK  Name = 5488886
REMARK  5 active torsions:
REMARK  status: ('A' for Active; 'I' for Inactive)
REMARK    1  A    between atoms: O_6  and  C_26
REMARK    2  A    between atoms: O_6  and  C_35
REMARK    3  A    between atoms: C_17  and  C_20
REMARK    4  A    between atoms: C_19  and  C_24
REMARK    5  A    between atoms: C_33  and  C_37
REMARK                            x       y       z     vdW  Elec       q    Type
REMARK                         _______ _______ _______ _____ _____    ______ ____
ROOT
ATOM      1  O   UNL     1     111.351 127.184 136.132  0.00  0.00    +0.000 OA
ATOM      2  O   UNL     1     113.800 126.002 137.086  0.00  0.00    +0.000 OA
ATOM      3  O   UNL     1     111.788 124.330 135.935  0.00  0.00    +0.000 OA
ATOM      4  O   UNL     1     110.548 124.883 135.446  0.00  0.00    +0.000 OA
ATOM      5  C   UNL     1     112.580 126.575 136.609  0.00  0.00    +0.000 A 
ATOM      6  C   UNL     1     111.840 126.488 136.259  0.00  0.00    +0.000 A 
ATOM      7  C   UNL     1     113.058 125.915 136.735  0.00  0.00    +0.000 A 
ATOM      8  C   UNL     1     111.575 125.739 136.034  0.00  0.00    +0.000 A 
ATOM      9  C   UNL     1     112.794 125.166 136.511  0.00  0.00    +0.000 A 
ATOM     10  C   UNL     1     112.053 125.078 136.160  0.00  0.00    +0.000 A 
ATOM     11  C   UNL     1     110.578 127.099 135.768  0.00  0.00    +0.000 A 
ATOM     12  C   UNL     1     110.805 125.635 135.668  0.00  0.00    +0.000 A 
ATOM     13  C   UNL     1     110.302 126.320 135.533  0.00  0.00    +0.000 A 
ENDROOT
BRANCH   5  20
ATOM     14  O   UNL     1     113.199 127.820 136.278  0.00  0.00    +0.000 OA
ATOM     15  O   UNL     1     112.401 127.079 138.169  0.00  0.00    +0.000 OA
ATOM     16  O   UNL     1     112.930 128.576 138.620  0.00  0.00    +0.000 OA
ATOM     17  O   UNL     1     113.638 129.569 137.508  0.00  0.00    +0.000 OA
ATOM     18  C   UNL     1     112.755 127.576 137.614  0.00  0.00    +0.000 C 
ATOM     19  C   UNL     1     113.020 128.324 137.839  0.00  0.00    +0.000 C 
ATOM     20  C   UNL     1     112.845 127.324 136.834  0.00  0.00    +0.000 C 
ATOM     21  C   UNL     1     113.374 128.821 137.283  0.00  0.00    +0.000 C 
ATOM     22  C   UNL     1     113.463 128.569 136.503  0.00  0.00    +0.000 C 
BRANCH  22  24
ATOM     23  O   UNL     1     114.244 128.742 135.319  0.00  0.00    +0.000 OA
ATOM     24  C   UNL     1     113.817 129.065 135.947  0.00  0.00    +0.000 C 
ENDBRANCH  22  24
ENDBRANCH   5  20
BRANCH  11  26
ATOM     25  C   UNL     1     109.153 129.088 135.393  0.00  0.00    +0.000 A 
ATOM     26  C   UNL     1     110.103 127.762 135.643  0.00  0.00    +0.000 A 
ATOM     27  C   UNL     1     109.021 128.604 136.048  0.00  0.00    +0.000 A 
ATOM     28  C   UNL     1     109.760 128.910 134.863  0.00  0.00    +0.000 A 
ATOM     29  C   UNL     1     109.497 127.941 136.172  0.00  0.00    +0.000 A 
ATOM     30  C   UNL     1     110.235 128.247 134.988  0.00  0.00    +0.000 A 
BRANCH  25  31
ATOM     31  O   UNL     1     108.678 129.751 135.269  0.00  0.00    +0.000 OA
BRANCH  31  40
ATOM     32  O   UNL     1     109.531 130.698 135.914  0.00  0.00    +0.000 OA
ATOM     33  O   UNL     1     107.547 131.880 136.803  0.00  0.00    +0.000 OA
ATOM     34  O   UNL     1     109.062 132.433 137.152  0.00  0.00    +0.000 OA
ATOM     35  O   UNL     1     107.355 130.538 135.862  0.00  0.00    +0.000 OA
ATOM     36  C   UNL     1     108.209 131.486 136.507  0.00  0.00    +0.000 C 
ATOM     37  C   UNL     1     108.965 131.763 136.681  0.00  0.00    +0.000 C 
ATOM     38  C   UNL     1     108.112 130.816 136.036  0.00  0.00    +0.000 C 
ATOM     39  C   UNL     1     109.628 131.368 136.384  0.00  0.00    +0.000 C 
ATOM     40  C   UNL     1     108.775 130.421 135.739  0.00  0.00    +0.000 C 
ATOM     41  C   UNL     1     110.385 131.645 136.559  0.00  0.00    +0.000 C 
ENDBRANCH  31  40
ENDBRANCH  25  31
ENDBRANCH  11  26
TORSDOF 5
ENDMDL
MODEL 4
REMARK VINA RESULT:     -10.6      3.099      6.317
REMARK  Name = 5488886
REMARK  5 active torsions:
REMARK  status: ('A' for Active; 'I' for Inactive)
REMARK    1  A    between atoms: O_6  and  C_26
REMARK    2  A    between atoms: O_6  and  C_35
REMARK    3  A    between atoms: C_17  and  C_20
REMARK    4  A    between atoms: C_19  and  C_24
REMARK    5  A    between atoms: C_33  and  C_37
REMARK                            x       y       z     vdW  Elec       q    Type
REMARK                         _______ _______ _______ _____ _____    ______ ____
ROOT
ATOM      1  O   UNL     1     112.706 126.253 138.637  0.00  0.00    +0.000 OA
ATOM      2  O   UNL     1     111.030 124.512 137.068  0.00  0.00    +0.000 OA
ATOM      3  O   UNL     1     113.871 124.249 136.905  0.00  0.00    +0.000 OA
ATOM      4  O   UNL     1     114.745 125.101 137.675  0.00  0.00    +0.000 OA
ATOM      5  C   UNL     1     111.873 125.369 137.841  0.00  0.00    +0.000 A 
ATOM      6  C   UNL     1     112.626 125.611 138.071  0.00  0.00    +0.000 A 
ATOM      7  C   UNL     1     111.784 124.754 137.299  0.00  0.00    +0.000 A 
ATOM      8  C   UNL     1     113.293 125.238 137.759  0.00  0.00    +0.000 A 
ATOM      9  C   UNL     1     112.451 124.380 136.986  0.00  0.00    +0.000 A 
ATOM     10  C   UNL     1     113.205 124.622 137.217  0.00  0.00    +0.000 A 
ATOM     11  C   UNL     1     113.488 126.510 138.881  0.00  0.00    +0.000 A 
ATOM     12  C   UNL     1     114.084 125.480 137.991  0.00  0.00    +0.000 A 
ATOM     13  C   UNL     1     114.183 126.121 138.556  0.00  0.00    +0.000 A 
ENDROOT
BRANCH   5  20
ATOM     14  O   UNL     1     110.921 125.524 138.896  0.00  0.00    +0.000 OA
ATOM     15  O   UNL     1     111.112 126.551 136.980  0.00  0.00    +0.000 OA
ATOM     16  O   UNL     1     109.778 127.299 137.603  0.00  0.00    +0.000 OA
ATOM     17  O   UNL     1     109.207 126.862 139.088  0.00  0.00    +0.000 OA
ATOM     18  C   UNL     1     110.826 126.334 137.722  0.00  0.00    +0.000 C 
ATOM     19  C   UNL     1     110.159 126.707 138.034  0.00  0.00    +0.000 C 
ATOM     20  C   UNL     1     111.207 125.742 138.153  0.00  0.00    +0.000 C 
ATOM     21  C   UNL     1     109.874 126.489 138.776  0.00  0.00    +0.000 C 
ATOM     22  C   UNL     1     110.255 125.897 139.207  0.00  0.00    +0.000 C 
BRANCH  22  24
ATOM     23  O   UNL     1     110.482 125.652 140.597  0.00  0.00    +0.000 OA
ATOM     24  C   UNL     1     109.969 125.679 139.950  0.00  0.00    +0.000 C 
ENDBRANCH  22  24
ENDBRANCH   5  20
BRANCH  11  26
ATOM     25  C   UNL     1     113.743 128.357 140.508  0.00  0.00    +0.000 A 
ATOM     26  C   UNL     1     113.573 127.126 139.423  0.00  0.00    +0.000 A 
ATOM     27  C   UNL     1     113.521 128.520 139.731  0.00  0.00    +0.000 A 
ATOM     28  C   UNL     1     113.880 127.578 140.744  0.00  0.00    +0.000 A 
ATOM     29  C   UNL     1     113.436 127.904 139.189  0.00  0.00    +0.000 A 
ATOM     30  C   UNL     1     113.795 126.962 140.202  0.00  0.00    +0.000 A 
BRANCH  25  31
ATOM     31  O   UNL     1     113.828 128.973 141.051  0.00  0.00    +0.000 OA
BRANCH  31  40
ATOM     32  O   UNL     1     112.607 128.764 141.764  0.00  0.00    +0.000 OA
ATOM     33  O   UNL     1     112.291 131.213 141.939  0.00  0.00    +0.000 OA
ATOM     34  O   UNL     1     111.176 130.188 142.594  0.00  0.00    +0.000 OA
ATOM     35  O   UNL     1     113.617 130.605 141.168  0.00  0.00    +0.000 OA
ATOM     36  C   UNL     1     112.396 130.396 141.881  0.00  0.00    +0.000 C 
ATOM     37  C   UNL     1     111.839 129.885 142.208  0.00  0.00    +0.000 C 
ATOM     38  C   UNL     1     113.059 130.093 141.495  0.00  0.00    +0.000 C 
ATOM     39  C   UNL     1     111.945 129.068 142.150  0.00  0.00    +0.000 C 
ATOM     40  C   UNL     1     113.164 129.276 141.437  0.00  0.00    +0.000 C 
ATOM     41  C   UNL     1     111.386 128.556 142.477  0.00  0.00    +0.000 C 
ENDBRANCH  31  40
ENDBRANCH  25  31
ENDBRANCH  11  26
TORSDOF 5
ENDMDL
MODEL 5
REMARK VINA RESULT:     -10.4      1.235      3.114
REMARK  Name = 5488886
REMARK  5 active torsions:
REMARK  status: ('A' for Active; 'I' for Inactive)
REMARK    1  A    between atoms: O_6  and  C_26
REMARK    2  A    between atoms: O_6  and  C_35
REMARK    3  A    between atoms: C_17  and  C_20
REMARK    4  A    between atoms: C_19  and  C_24
REMARK    5  A    between atoms: C_33  and  C_37
REMARK                            x       y       z     vdW  Elec       q    Type
REMARK                         _______ _______ _______ _____ _____    ______ ____
ROOT
ATOM      1  O   UNL     1     112.203 129.308 136.873  0.00  0.00    +0.000 OA
ATOM      2  O   UNL     1     110.171 131.345 137.037  0.00  0.00    +0.000 OA
ATOM      3  O   UNL     1     112.924 132.088 137.234  0.00  0.00    +0.000 OA
ATOM      4  O   UNL     1     113.971 131.098 137.157  0.00  0.00    +0.000 OA
ATOM      5  C   UNL     1     111.189 130.345 136.957  0.00  0.00    +0.000 A 
ATOM      6  C   UNL     1     111.986 130.135 136.964  0.00  0.00    +0.000 A 
ATOM      7  C   UNL     1     110.969 131.135 137.043  0.00  0.00    +0.000 A 
ATOM      8  C   UNL     1     112.564 130.716 137.056  0.00  0.00    +0.000 A 
ATOM      9  C   UNL     1     111.547 131.717 137.135  0.00  0.00    +0.000 A 
ATOM     10  C   UNL     1     112.345 131.507 137.142  0.00  0.00    +0.000 A 
ATOM     11  C   UNL     1     113.031 129.084 136.879  0.00  0.00    +0.000 A 
ATOM     12  C   UNL     1     113.399 130.511 137.064  0.00  0.00    +0.000 A 
ATOM     13  C   UNL     1     113.634 129.688 136.975  0.00  0.00    +0.000 A 
ENDROOT
BRANCH   5  20
ATOM     14  O   UNL     1     110.409 129.498 136.110  0.00  0.00    +0.000 OA
ATOM     15  O   UNL     1     110.434 129.716 138.282  0.00  0.00    +0.000 OA
ATOM     16  O   UNL     1     109.276 128.554 138.098  0.00  0.00    +0.000 OA
ATOM     17  O   UNL     1     108.874 128.022 136.589  0.00  0.00    +0.000 OA
ATOM     18  C   UNL     1     110.233 129.449 137.528  0.00  0.00    +0.000 C 
ATOM     19  C   UNL     1     109.654 128.868 137.435  0.00  0.00    +0.000 C 
ATOM     20  C   UNL     1     110.610 129.764 136.865  0.00  0.00    +0.000 C 
ATOM     21  C   UNL     1     109.453 128.602 136.681  0.00  0.00    +0.000 C 
ATOM     22  C   UNL     1     109.831 128.917 136.018  0.00  0.00    +0.000 C 
BRANCH  22  24
ATOM     23  O   UNL     1     109.715 129.153 134.614  0.00  0.00    +0.000 OA
ATOM     24  C   UNL     1     109.630 128.651 135.264  0.00  0.00    +0.000 C 
ENDBRANCH  22  24
ENDBRANCH   5  20
BRANCH  11  26
ATOM     25  C   UNL     1     113.680 126.709 136.621  0.00  0.00    +0.000 A 
ATOM     26  C   UNL     1     113.248 128.292 136.793  0.00  0.00    +0.000 A 
ATOM     27  C   UNL     1     113.682 127.210 135.966  0.00  0.00    +0.000 A 
ATOM     28  C   UNL     1     113.462 126.999 137.363  0.00  0.00    +0.000 A 
ATOM     29  C   UNL     1     113.466 128.002 136.053  0.00  0.00    +0.000 A 
ATOM     30  C   UNL     1     113.246 127.790 137.449  0.00  0.00    +0.000 A 
BRANCH  25  31
ATOM     31  O   UNL     1     113.897 125.918 136.535  0.00  0.00    +0.000 OA
BRANCH  31  40
ATOM     32  O   UNL     1     112.585 125.473 136.185  0.00  0.00    +0.000 OA
ATOM     33  O   UNL     1     113.049 123.280 137.236  0.00  0.00    +0.000 OA
ATOM     34  O   UNL     1     111.582 123.566 136.536  0.00  0.00    +0.000 OA
ATOM     35  O   UNL     1     114.206 124.456 137.235  0.00  0.00    +0.000 OA
ATOM     36  C   UNL     1     112.894 124.011 136.886  0.00  0.00    +0.000 C 
ATOM     37  C   UNL     1     112.161 124.153 136.536  0.00  0.00    +0.000 C 
ATOM     38  C   UNL     1     113.473 124.598 136.885  0.00  0.00    +0.000 C 
ATOM     39  C   UNL     1     112.007 124.885 136.185  0.00  0.00    +0.000 C 
ATOM     40  C   UNL     1     113.318 125.330 136.535  0.00  0.00    +0.000 C 
ATOM     41  C   UNL     1     111.273 125.027 135.835  0.00  0.00    +0.000 C 
ENDBRANCH  31  40
ENDBRANCH  25  31
ENDBRANCH  11  26
TORSDOF 5
ENDMDL
MODEL 6
REMARK VINA RESULT:     -10.4      1.435      2.121
REMARK  Name = 5488886
REMARK  5 active torsions:
REMARK  status: ('A' for Active; 'I' for Inactive)
REMARK    1  A    between atoms: O_6  and  C_26
REMARK    2  A    between atoms: O_6  and  C_35
REMARK    3  A    between atoms: C_17  and  C_20
REMARK    4  A    between atoms: C_19  and  C_24
REMARK    5  A    between atoms: C_33  and  C_37
REMARK                            x       y       z     vdW  Elec       q    Type
REMARK                         _______ _______ _______ _____ _____    ______ ____
ROOT
ATOM      1  O   UNL     1     110.380 130.219 136.012  0.00  0.00    +0.000 OA
ATOM      2  O   UNL     1     110.720 132.742 137.361  0.00  0.00    +0.000 OA
ATOM      3  O   UNL     1     108.743 132.500 135.311  0.00  0.00    +0.000 OA
ATOM      4  O   UNL     1     108.542 131.254 134.612  0.00  0.00    +0.000 OA
ATOM      5  C   UNL     1     110.541 131.496 136.684  0.00  0.00    +0.000 A 
ATOM      6  C   UNL     1     110.153 131.041 136.118  0.00  0.00    +0.000 A 
ATOM      7  C   UNL     1     110.331 132.286 136.794  0.00  0.00    +0.000 A 
ATOM      8  C   UNL     1     109.553 131.376 135.660  0.00  0.00    +0.000 A 
ATOM      9  C   UNL     1     109.732 132.622 136.336  0.00  0.00    +0.000 A 
ATOM     10  C   UNL     1     109.343 132.166 135.769  0.00  0.00    +0.000 A 
ATOM     11  C   UNL     1     109.979 129.739 135.424  0.00  0.00    +0.000 A 
ATOM     12  C   UNL     1     109.140 130.912 135.065  0.00  0.00    +0.000 A 
ATOM     13  C   UNL     1     109.355 130.087 134.946  0.00  0.00    +0.000 A 
ENDROOT
BRANCH   5  20
ATOM     14  O   UNL     1     111.909 131.115 136.845  0.00  0.00    +0.000 OA
ATOM     15  O   UNL     1     110.203 130.923 138.193  0.00  0.00    +0.000 OA
ATOM     16  O   UNL     1     111.402 130.254 139.110  0.00  0.00    +0.000 OA
ATOM     17  O   UNL     1     112.938 130.159 138.516  0.00  0.00    +0.000 OA
ATOM     18  C   UNL     1     110.971 130.875 137.897  0.00  0.00    +0.000 C 
ATOM     19  C   UNL     1     111.571 130.541 138.355  0.00  0.00    +0.000 C 
ATOM     20  C   UNL     1     111.140 131.162 137.142  0.00  0.00    +0.000 C 
ATOM     21  C   UNL     1     112.339 130.494 138.058  0.00  0.00    +0.000 C 
ATOM     22  C   UNL     1     112.508 130.780 137.303  0.00  0.00    +0.000 C 
BRANCH  22  24
ATOM     23  O   UNL     1     113.557 131.317 136.495  0.00  0.00    +0.000 OA
ATOM     24  C   UNL     1     113.276 130.733 137.006  0.00  0.00    +0.000 C 
ENDBRANCH  22  24
ENDBRANCH   5  20
BRANCH  11  26
ATOM     25  C   UNL     1     110.617 127.370 135.102  0.00  0.00    +0.000 A 
ATOM     26  C   UNL     1     110.192 128.950 135.317  0.00  0.00    +0.000 A 
ATOM     27  C   UNL     1     110.016 127.566 135.630  0.00  0.00    +0.000 A 
ATOM     28  C   UNL     1     111.007 127.962 134.681  0.00  0.00    +0.000 A 
ATOM     29  C   UNL     1     109.803 128.356 135.738  0.00  0.00    +0.000 A 
ATOM     30  C   UNL     1     110.795 128.752 134.788  0.00  0.00    +0.000 A 
BRANCH  25  31
ATOM     31  O   UNL     1     110.830 126.580 134.995  0.00  0.00    +0.000 OA
BRANCH  31  40
ATOM     32  O   UNL     1     111.925 126.611 135.913  0.00  0.00    +0.000 OA
ATOM     33  O   UNL     1     111.496 124.247 136.506  0.00  0.00    +0.000 OA
ATOM     34  O   UNL     1     112.734 125.067 137.226  0.00  0.00    +0.000 OA
ATOM     35  O   UNL     1     110.544 125.004 135.391  0.00  0.00    +0.000 OA
ATOM     36  C   UNL     1     111.639 125.035 136.309  0.00  0.00    +0.000 C 
ATOM     37  C   UNL     1     112.257 125.445 136.668  0.00  0.00    +0.000 C 
ATOM     38  C   UNL     1     111.163 125.413 135.751  0.00  0.00    +0.000 C 
ATOM     39  C   UNL     1     112.401 126.234 136.470  0.00  0.00    +0.000 C 
ATOM     40  C   UNL     1     111.306 126.202 135.553  0.00  0.00    +0.000 C 
ATOM     41  C   UNL     1     113.020 126.643 136.830  0.00  0.00    +0.000 C 
ENDBRANCH  31  40
ENDBRANCH  25  31
ENDBRANCH  11  26
TORSDOF 5
ENDMDL
MODEL 7
REMARK VINA RESULT:     -10.1      2.448      4.780
REMARK  Name = 5488886
REMARK  5 active torsions:
REMARK  status: ('A' for Active; 'I' for Inactive)
REMARK    1  A    between atoms: O_6  and  C_26
REMARK    2  A    between atoms: O_6  and  C_35
REMARK    3  A    between atoms: C_17  and  C_20
REMARK    4  A    between atoms: C_19  and  C_24
REMARK    5  A    between atoms: C_33  and  C_37
REMARK                            x       y       z     vdW  Elec       q    Type
REMARK                         _______ _______ _______ _____ _____    ______ ____
ROOT
ATOM      1  O   UNL     1     111.909 126.574 137.392  0.00  0.00    +0.000 OA
ATOM      2  O   UNL     1     110.890 126.716 134.701  0.00  0.00    +0.000 OA
ATOM      3  O   UNL     1     111.115 124.173 135.985  0.00  0.00    +0.000 OA
ATOM      4  O   UNL     1     111.620 124.059 137.332  0.00  0.00    +0.000 OA
ATOM      5  C   UNL     1     111.394 126.631 136.036  0.00  0.00    +0.000 A 
ATOM      6  C   UNL     1     111.599 126.180 136.694  0.00  0.00    +0.000 A 
ATOM      7  C   UNL     1     111.096 126.265 135.360  0.00  0.00    +0.000 A 
ATOM      8  C   UNL     1     111.506 125.361 136.677  0.00  0.00    +0.000 A 
ATOM      9  C   UNL     1     111.002 125.445 135.342  0.00  0.00    +0.000 A 
ATOM     10  C   UNL     1     111.208 124.993 136.002  0.00  0.00    +0.000 A 
ATOM     11  C   UNL     1     112.125 126.109 138.081  0.00  0.00    +0.000 A 
ATOM     12  C   UNL     1     111.716 124.878 137.357  0.00  0.00    +0.000 A 
ATOM     13  C   UNL     1     112.028 125.255 138.064  0.00  0.00    +0.000 A 
ENDROOT
BRANCH   5  20
ATOM     14  O   UNL     1     112.222 127.786 135.885  0.00  0.00    +0.000 OA
ATOM     15  O   UNL     1     110.110 127.600 136.402  0.00  0.00    +0.000 OA
ATOM     16  O   UNL     1     110.296 129.239 136.435  0.00  0.00    +0.000 OA
ATOM     17  O   UNL     1     111.766 129.910 136.101  0.00  0.00    +0.000 OA
ATOM     18  C   UNL     1     110.845 127.935 136.235  0.00  0.00    +0.000 C 
ATOM     19  C   UNL     1     110.938 128.755 136.252  0.00  0.00    +0.000 C 
ATOM     20  C   UNL     1     111.487 127.451 136.052  0.00  0.00    +0.000 C 
ATOM     21  C   UNL     1     111.673 129.090 136.085  0.00  0.00    +0.000 C 
ATOM     22  C   UNL     1     112.315 128.606 135.902  0.00  0.00    +0.000 C 
BRANCH  22  24
ATOM     23  O   UNL     1     113.725 128.466 135.716  0.00  0.00    +0.000 OA
ATOM     24  C   UNL     1     113.051 128.941 135.735  0.00  0.00    +0.000 C 
ENDBRANCH  22  24
ENDBRANCH   5  20
BRANCH  11  26
ATOM     25  C   UNL     1     113.019 127.221 140.104  0.00  0.00    +0.000 A 
ATOM     26  C   UNL     1     112.423 126.480 138.755  0.00  0.00    +0.000 A 
ATOM     27  C   UNL     1     113.536 126.910 139.541  0.00  0.00    +0.000 A 
ATOM     28  C   UNL     1     112.204 127.161 139.993  0.00  0.00    +0.000 A 
ATOM     29  C   UNL     1     113.238 126.540 138.867  0.00  0.00    +0.000 A 
ATOM     30  C   UNL     1     111.906 126.791 139.319  0.00  0.00    +0.000 A 
BRANCH  25  31
ATOM     31  O   UNL     1     113.318 127.591 140.778  0.00  0.00    +0.000 OA
BRANCH  31  40
ATOM     32  O   UNL     1     113.697 128.844 140.204  0.00  0.00    +0.000 OA
ATOM     33  O   UNL     1     112.741 130.027 142.157  0.00  0.00    +0.000 OA
ATOM     34  O   UNL     1     113.438 130.885 140.932  0.00  0.00    +0.000 OA
ATOM     35  O   UNL     1     112.680 128.380 142.079  0.00  0.00    +0.000 OA
ATOM     36  C   UNL     1     113.059 129.632 141.506  0.00  0.00    +0.000 C 
ATOM     37  C   UNL     1     113.408 130.061 140.894  0.00  0.00    +0.000 C 
ATOM     38  C   UNL     1     113.029 128.810 141.467  0.00  0.00    +0.000 C 
ATOM     39  C   UNL     1     113.727 129.667 140.243  0.00  0.00    +0.000 C 
ATOM     40  C   UNL     1     113.348 128.415 140.816  0.00  0.00    +0.000 C 
ATOM     41  C   UNL     1     114.076 130.097 139.631  0.00  0.00    +0.000 C 
ENDBRANCH  31  40
ENDBRANCH  25  31
ENDBRANCH  11  26
TORSDOF 5
ENDMDL
