MODEL 1
REMARK VINA RESULT:      -9.9      0.000      0.000
REMARK  Name = 101244288
REMARK  5 active torsions:
REMARK  status: ('A' for Active; 'I' for Inactive)
REMARK    1  A    between atoms: O_2  and  C_16
REMARK    2  A    between atoms: O_2  and  C_23
REMARK    3  A    between atoms: O_12  and  C_33
REMARK    4  A    between atoms: C_17  and  C_25
REMARK    5  A    between atoms: C_19  and  C_24
REMARK                            x       y       z     vdW  Elec       q    Type
REMARK                         _______ _______ _______ _____ _____    ______ ____
ROOT
ATOM      1  O   UNL     1     104.932 124.443 139.579  0.00  0.00    +0.000 OA
ATOM      2  O   UNL     1     103.686 122.740 140.136  0.00  0.00    +0.000 OA
ATOM      3  O   UNL     1     105.542 123.669 142.295  0.00  0.00    +0.000 OA
ATOM      4  C   UNL     1     104.245 123.345 140.182  0.00  0.00    +0.000 C 
ATOM      5  C   UNL     1     104.373 123.838 139.533  0.00  0.00    +0.000 C 
ATOM      6  C   UNL     1     104.676 123.456 140.876  0.00  0.00    +0.000 C 
ATOM      7  C   UNL     1     105.235 124.061 140.922  0.00  0.00    +0.000 A 
ATOM      8  C   UNL     1     105.363 124.555 140.274  0.00  0.00    +0.000 A 
ATOM      9  C   UNL     1     106.394 125.309 141.030  0.00  0.00    +0.000 A 
ATOM     10  C   UNL     1     105.942 125.188 140.309  0.00  0.00    +0.000 A 
ATOM     11  C   UNL     1     105.677 124.167 141.651  0.00  0.00    +0.000 A 
ATOM     12  C   UNL     1     106.261 124.796 141.705  0.00  0.00    +0.000 A 
ENDROOT
BRANCH   5  14
ATOM     13  O   UNL     1     101.931 124.085 138.069  0.00  0.00    +0.000 OA
ATOM     14  C   UNL     1     103.942 123.727 138.838  0.00  0.00    +0.000 A 
ATOM     15  C   UNL     1     103.152 123.961 138.801  0.00  0.00    +0.000 A 
ATOM     16  C   UNL     1     104.301 123.380 138.181  0.00  0.00    +0.000 A 
ATOM     17  C   UNL     1     102.721 123.850 138.107  0.00  0.00    +0.000 A 
ATOM     18  C   UNL     1     103.870 123.268 137.487  0.00  0.00    +0.000 A 
ATOM     19  C   UNL     1     103.080 123.504 137.450  0.00  0.00    +0.000 A 
BRANCH  19  20
ATOM     20  O   UNL     1     102.649 123.392 136.755  0.00  0.00    +0.000 OA
ATOM     21  C   UNL     1     102.995 123.010 136.111  0.00  0.00    +0.000 C 
ENDBRANCH  19  20
ENDBRANCH   5  14
BRANCH   9  22
ATOM     22  O   UNL     1     106.952 125.915 141.073  0.00  0.00    +0.000 OA
BRANCH  22  30
ATOM     23  O   UNL     1     106.100 126.983 141.490  0.00  0.00    +0.000 OA
ATOM     24  O   UNL     1     107.816 127.721 143.113  0.00  0.00    +0.000 OA
ATOM     25  O   UNL     1     108.097 126.407 142.156  0.00  0.00    +0.000 OA
ATOM     26  O   UNL     1     106.392 128.543 142.988  0.00  0.00    +0.000 OA
ATOM     27  C   UNL     1     107.244 127.475 142.572  0.00  0.00    +0.000 C 
ATOM     28  C   UNL     1     107.385 126.818 142.093  0.00  0.00    +0.000 C 
ATOM     29  C   UNL     1     106.532 127.886 142.510  0.00  0.00    +0.000 C 
ATOM     30  C   UNL     1     106.813 126.572 141.552  0.00  0.00    +0.000 C 
ATOM     31  C   UNL     1     105.960 127.640 141.968  0.00  0.00    +0.000 C 
BRANCH  31  34
ATOM     32  O   UNL     1     105.166 128.651 141.344  0.00  0.00    +0.000 OA
ATOM     33  O   UNL     1     104.617 127.863 142.403  0.00  0.00    +0.000 OA
ATOM     34  C   UNL     1     105.248 128.051 141.905  0.00  0.00    +0.000 C 
ENDBRANCH  31  34
ENDBRANCH  22  30
ENDBRANCH   9  22
TORSDOF 5
ENDMDL
MODEL 2
REMARK VINA RESULT:      -9.5      1.082      1.959
REMARK  Name = 101244288
REMARK  5 active torsions:
REMARK  status: ('A' for Active; 'I' for Inactive)
REMARK    1  A    between atoms: O_2  and  C_16
REMARK    2  A    between atoms: O_2  and  C_23
REMARK    3  A    between atoms: O_12  and  C_33
REMARK    4  A    between atoms: C_17  and  C_25
REMARK    5  A    between atoms: C_19  and  C_24
REMARK                            x       y       z     vdW  Elec       q    Type
REMARK                         _______ _______ _______ _____ _____    ______ ____
ROOT
ATOM      1  O   UNL     1     104.974 124.750 139.892  0.00  0.00    +0.000 OA
ATOM      2  O   UNL     1     104.241 122.740 140.323  0.00  0.00    +0.000 OA
ATOM      3  O   UNL     1     105.759 124.008 142.571  0.00  0.00    +0.000 OA
ATOM      4  C   UNL     1     104.612 123.471 140.416  0.00  0.00    +0.000 C 
ATOM      5  C   UNL     1     104.603 124.019 139.799  0.00  0.00    +0.000 C 
ATOM      6  C   UNL     1     104.992 123.653 141.125  0.00  0.00    +0.000 C 
ATOM      7  C   UNL     1     105.363 124.384 141.217  0.00  0.00    +0.000 A 
ATOM      8  C   UNL     1     105.354 124.933 140.601  0.00  0.00    +0.000 A 
ATOM      9  C   UNL     1     106.134 125.893 141.422  0.00  0.00    +0.000 A 
ATOM     10  C   UNL     1     105.737 125.697 140.685  0.00  0.00    +0.000 A 
ATOM     11  C   UNL     1     105.755 124.563 141.961  0.00  0.00    +0.000 A 
ATOM     12  C   UNL     1     106.144 125.322 142.063  0.00  0.00    +0.000 A 
ENDROOT
BRANCH   5  14
ATOM     13  O   UNL     1     102.236 123.982 138.198  0.00  0.00    +0.000 OA
ATOM     14  C   UNL     1     104.223 123.836 139.090  0.00  0.00    +0.000 A 
ATOM     15  C   UNL     1     103.420 124.000 138.998  0.00  0.00    +0.000 A 
ATOM     16  C   UNL     1     104.646 123.489 138.473  0.00  0.00    +0.000 A 
ATOM     17  C   UNL     1     103.039 123.818 138.290  0.00  0.00    +0.000 A 
ATOM     18  C   UNL     1     104.266 123.307 137.763  0.00  0.00    +0.000 A 
ATOM     19  C   UNL     1     103.462 123.471 137.673  0.00  0.00    +0.000 A 
BRANCH  19  20
ATOM     20  O   UNL     1     103.082 123.288 136.963  0.00  0.00    +0.000 OA
ATOM     21  C   UNL     1     103.516 122.996 136.325  0.00  0.00    +0.000 C 
ENDBRANCH  19  20
ENDBRANCH   5  14
BRANCH   9  22
ATOM     22  O   UNL     1     106.505 126.625 141.512  0.00  0.00    +0.000 OA
BRANCH  22  30
ATOM     23  O   UNL     1     107.742 126.250 140.902  0.00  0.00    +0.000 OA
ATOM     24  O   UNL     1     108.964 127.698 142.494  0.00  0.00    +0.000 OA
ATOM     25  O   UNL     1     107.320 127.589 142.573  0.00  0.00    +0.000 OA
ATOM     26  O   UNL     1     109.793 126.841 141.354  0.00  0.00    +0.000 OA
ATOM     27  C   UNL     1     108.557 127.215 141.964  0.00  0.00    +0.000 C 
ATOM     28  C   UNL     1     107.734 127.161 142.004  0.00  0.00    +0.000 C 
ATOM     29  C   UNL     1     108.971 126.787 141.394  0.00  0.00    +0.000 C 
ATOM     30  C   UNL     1     107.327 126.679 141.473  0.00  0.00    +0.000 C 
ATOM     31  C   UNL     1     108.564 126.305 140.863  0.00  0.00    +0.000 C 
BRANCH  31  34
ATOM     32  O   UNL     1     109.045 126.171 139.525  0.00  0.00    +0.000 OA
ATOM     33  O   UNL     1     109.324 125.154 140.490  0.00  0.00    +0.000 OA
ATOM     34  C   UNL     1     108.978 125.876 140.293  0.00  0.00    +0.000 C 
ENDBRANCH  31  34
ENDBRANCH  22  30
ENDBRANCH   9  22
TORSDOF 5
ENDMDL
MODEL 3
REMARK VINA RESULT:      -9.4      3.769      5.346
REMARK  Name = 101244288
REMARK  5 active torsions:
REMARK  status: ('A' for Active; 'I' for Inactive)
REMARK    1  A    between atoms: O_2  and  C_16
REMARK    2  A    between atoms: O_2  and  C_23
REMARK    3  A    between atoms: O_12  and  C_33
REMARK    4  A    between atoms: C_17  and  C_25
REMARK    5  A    between atoms: C_19  and  C_24
REMARK                            x       y       z     vdW  Elec       q    Type
REMARK                         _______ _______ _______ _____ _____    ______ ____
ROOT
ATOM      1  O   UNL     1     104.977 127.557 142.426  0.00  0.00    +0.000 OA
ATOM      2  O   UNL     1     105.914 129.393 141.708  0.00  0.00    +0.000 OA
ATOM      3  O   UNL     1     107.848 127.284 142.589  0.00  0.00    +0.000 OA
ATOM      4  C   UNL     1     105.823 128.631 142.012  0.00  0.00    +0.000 C 
ATOM      5  C   UNL     1     105.068 128.319 142.122  0.00  0.00    +0.000 C 
ATOM      6  C   UNL     1     106.488 128.183 142.204  0.00  0.00    +0.000 C 
ATOM      7  C   UNL     1     106.397 127.421 142.507  0.00  0.00    +0.000 A 
ATOM      8  C   UNL     1     105.642 127.107 142.618  0.00  0.00    +0.000 A 
ATOM      9  C   UNL     1     106.223 125.843 143.135  0.00  0.00    +0.000 A 
ATOM     10  C   UNL     1     105.534 126.315 142.933  0.00  0.00    +0.000 A 
ATOM     11  C   UNL     1     107.097 126.962 142.704  0.00  0.00    +0.000 A 
ATOM     12  C   UNL     1     107.009 126.168 143.020  0.00  0.00    +0.000 A 
ENDROOT
BRANCH   5  14
ATOM     13  O   UNL     1     103.003 129.017 140.273  0.00  0.00    +0.000 OA
ATOM     14  C   UNL     1     104.403 128.768 141.930  0.00  0.00    +0.000 A 
ATOM     15  C   UNL     1     104.035 128.668 141.198  0.00  0.00    +0.000 A 
ATOM     16  C   UNL     1     104.106 129.317 142.469  0.00  0.00    +0.000 A 
ATOM     17  C   UNL     1     103.371 129.117 141.005  0.00  0.00    +0.000 A 
ATOM     18  C   UNL     1     103.442 129.767 142.276  0.00  0.00    +0.000 A 
ATOM     19  C   UNL     1     103.074 129.666 141.544  0.00  0.00    +0.000 A 
BRANCH  19  20
ATOM     20  O   UNL     1     102.410 130.115 141.352  0.00  0.00    +0.000 OA
ATOM     21  C   UNL     1     102.263 130.826 141.744  0.00  0.00    +0.000 C 
ENDBRANCH  19  20
ENDBRANCH   5  14
BRANCH   9  22
ATOM     22  O   UNL     1     106.129 125.081 143.438  0.00  0.00    +0.000 OA
BRANCH  22  30
ATOM     23  O   UNL     1     106.404 125.395 144.805  0.00  0.00    +0.000 OA
ATOM     24  O   UNL     1     104.649 123.804 145.523  0.00  0.00    +0.000 OA
ATOM     25  O   UNL     1     104.959 124.021 143.917  0.00  0.00    +0.000 OA
ATOM     26  O   UNL     1     105.509 124.648 146.650  0.00  0.00    +0.000 OA
ATOM     27  C   UNL     1     105.234 124.335 145.284  0.00  0.00    +0.000 C 
ATOM     28  C   UNL     1     105.389 124.443 144.480  0.00  0.00    +0.000 C 
ATOM     29  C   UNL     1     105.664 124.756 145.847  0.00  0.00    +0.000 C 
ATOM     30  C   UNL     1     105.974 124.973 144.241  0.00  0.00    +0.000 C 
ATOM     31  C   UNL     1     106.249 125.286 145.608  0.00  0.00    +0.000 C 
BRANCH  31  34
ATOM     32  O   UNL     1     106.396 126.432 146.448  0.00  0.00    +0.000 OA
ATOM     33  O   UNL     1     107.392 125.407 146.457  0.00  0.00    +0.000 OA
ATOM     34  C   UNL     1     106.679 125.708 146.171  0.00  0.00    +0.000 C 
ENDBRANCH  31  34
ENDBRANCH  22  30
ENDBRANCH   9  22
TORSDOF 5
ENDMDL
MODEL 4
REMARK VINA RESULT:      -9.4      3.718      7.158
REMARK  Name = 101244288
REMARK  5 active torsions:
REMARK  status: ('A' for Active; 'I' for Inactive)
REMARK    1  A    between atoms: O_2  and  C_16
REMARK    2  A    between atoms: O_2  and  C_23
REMARK    3  A    between atoms: O_12  and  C_33
REMARK    4  A    between atoms: C_17  and  C_25
REMARK    5  A    between atoms: C_19  and  C_24
REMARK                            x       y       z     vdW  Elec       q    Type
REMARK                         _______ _______ _______ _____ _____    ______ ____
ROOT
ATOM      1  O   UNL     1     106.462 125.841 145.801  0.00  0.00    +0.000 OA
ATOM      2  O   UNL     1     106.705 127.358 147.351  0.00  0.00    +0.000 OA
ATOM      3  O   UNL     1     105.594 128.397 144.771  0.00  0.00    +0.000 OA
ATOM      4  C   UNL     1     106.522 127.004 146.628  0.00  0.00    +0.000 C 
ATOM      5  C   UNL     1     106.645 126.195 146.523  0.00  0.00    +0.000 C 
ATOM      6  C   UNL     1     106.215 127.459 146.013  0.00  0.00    +0.000 C 
ATOM      7  C   UNL     1     106.033 127.105 145.290  0.00  0.00    +0.000 A 
ATOM      8  C   UNL     1     106.156 126.295 145.184  0.00  0.00    +0.000 A 
ATOM      9  C   UNL     1     105.650 126.384 143.791  0.00  0.00    +0.000 A 
ATOM     10  C   UNL     1     105.969 125.915 144.437  0.00  0.00    +0.000 A 
ATOM     11  C   UNL     1     105.714 127.588 144.655  0.00  0.00    +0.000 A 
ATOM     12  C   UNL     1     105.521 127.225 143.901  0.00  0.00    +0.000 A 
ENDROOT
BRANCH   5  14
ATOM     13  O   UNL     1     108.881 124.999 147.841  0.00  0.00    +0.000 OA
ATOM     14  C   UNL     1     106.951 125.740 147.139  0.00  0.00    +0.000 A 
ATOM     15  C   UNL     1     107.763 125.597 147.182  0.00  0.00    +0.000 A 
ATOM     16  C   UNL     1     106.446 125.430 147.713  0.00  0.00    +0.000 A 
ATOM     17  C   UNL     1     108.070 125.143 147.798  0.00  0.00    +0.000 A 
ATOM     18  C   UNL     1     106.753 124.975 148.330  0.00  0.00    +0.000 A 
ATOM     19  C   UNL     1     107.565 124.832 148.372  0.00  0.00    +0.000 A 
BRANCH  19  20
ATOM     20  O   UNL     1     107.871 124.377 148.989  0.00  0.00    +0.000 OA
ATOM     21  C   UNL     1     107.383 124.140 149.610  0.00  0.00    +0.000 C 
ENDBRANCH  19  20
ENDBRANCH   5  14
BRANCH   9  22
ATOM     22  O   UNL     1     105.468 126.027 143.070  0.00  0.00    +0.000 OA
BRANCH  22  30
ATOM     23  O   UNL     1     106.674 126.383 142.391  0.00  0.00    +0.000 OA
ATOM     24  O   UNL     1     106.671 124.193 141.238  0.00  0.00    +0.000 OA
ATOM     25  O   UNL     1     105.466 124.567 142.301  0.00  0.00    +0.000 OA
ATOM     26  O   UNL     1     107.877 125.278 140.944  0.00  0.00    +0.000 OA
ATOM     27  C   UNL     1     106.672 124.923 141.622  0.00  0.00    +0.000 C 
ATOM     28  C   UNL     1     106.069 125.109 142.154  0.00  0.00    +0.000 C 
ATOM     29  C   UNL     1     107.275 125.465 141.475  0.00  0.00    +0.000 C 
ATOM     30  C   UNL     1     106.070 125.839 142.538  0.00  0.00    +0.000 C 
ATOM     31  C   UNL     1     107.276 126.195 141.859  0.00  0.00    +0.000 C 
BRANCH  31  34
ATOM     32  O   UNL     1     107.783 127.312 141.127  0.00  0.00    +0.000 OA
ATOM     33  O   UNL     1     108.578 126.708 142.151  0.00  0.00    +0.000 OA
ATOM     34  C   UNL     1     107.879 126.738 141.713  0.00  0.00    +0.000 C 
ENDBRANCH  31  34
ENDBRANCH  22  30
ENDBRANCH   9  22
TORSDOF 5
ENDMDL
MODEL 5
REMARK VINA RESULT:      -9.3      7.649      8.789
REMARK  Name = 101244288
REMARK  5 active torsions:
REMARK  status: ('A' for Active; 'I' for Inactive)
REMARK    1  A    between atoms: O_2  and  C_16
REMARK    2  A    between atoms: O_2  and  C_23
REMARK    3  A    between atoms: O_12  and  C_33
REMARK    4  A    between atoms: C_17  and  C_25
REMARK    5  A    between atoms: C_19  and  C_24
REMARK                            x       y       z     vdW  Elec       q    Type
REMARK                         _______ _______ _______ _____ _____    ______ ____
ROOT
ATOM      1  O   UNL     1     111.820 126.953 136.129  0.00  0.00    +0.000 OA
ATOM      2  O   UNL     1     109.917 125.951 135.758  0.00  0.00    +0.000 OA
ATOM      3  O   UNL     1     110.102 128.712 134.612  0.00  0.00    +0.000 OA
ATOM      4  C   UNL     1     110.509 126.526 135.756  0.00  0.00    +0.000 C 
ATOM      5  C   UNL     1     111.229 126.378 136.131  0.00  0.00    +0.000 C 
ATOM      6  C   UNL     1     110.379 127.248 135.380  0.00  0.00    +0.000 C 
ATOM      7  C   UNL     1     110.971 127.823 135.379  0.00  0.00    +0.000 A 
ATOM      8  C   UNL     1     111.692 127.676 135.753  0.00  0.00    +0.000 A 
ATOM      9  C   UNL     1     112.187 129.022 135.369  0.00  0.00    +0.000 A 
ATOM     10  C   UNL     1     112.316 128.267 135.759  0.00  0.00    +0.000 A 
ATOM     11  C   UNL     1     110.826 128.573 134.984  0.00  0.00    +0.000 A 
ATOM     12  C   UNL     1     111.438 129.176 134.979  0.00  0.00    +0.000 A 
ENDROOT
BRANCH   5  14
ATOM     13  O   UNL     1     111.242 124.793 138.509  0.00  0.00    +0.000 OA
ATOM     14  C   UNL     1     111.357 125.654 136.506  0.00  0.00    +0.000 A 
ATOM     15  C   UNL     1     111.236 125.585 137.320  0.00  0.00    +0.000 A 
ATOM     16  C   UNL     1     111.607 125.001 136.069  0.00  0.00    +0.000 A 
ATOM     17  C   UNL     1     111.364 124.862 137.696  0.00  0.00    +0.000 A 
ATOM     18  C   UNL     1     111.735 124.278 136.445  0.00  0.00    +0.000 A 
ATOM     19  C   UNL     1     111.613 124.209 137.259  0.00  0.00    +0.000 A 
BRANCH  19  20
ATOM     20  O   UNL     1     111.742 123.486 137.635  0.00  0.00    +0.000 OA
ATOM     21  C   UNL     1     111.995 122.832 137.199  0.00  0.00    +0.000 C 
ENDBRANCH  19  20
ENDBRANCH   5  14
BRANCH   9  22
ATOM     22  O   UNL     1     112.780 129.595 135.369  0.00  0.00    +0.000 OA
BRANCH  22  30
ATOM     23  O   UNL     1     112.329 130.359 136.489  0.00  0.00    +0.000 OA
ATOM     24  O   UNL     1     114.667 130.610 137.261  0.00  0.00    +0.000 OA
ATOM     25  O   UNL     1     114.339 129.762 135.884  0.00  0.00    +0.000 OA
ATOM     26  O   UNL     1     113.436 131.291 138.122  0.00  0.00    +0.000 OA
ATOM     27  C   UNL     1     113.887 130.527 137.003  0.00  0.00    +0.000 C 
ATOM     28  C   UNL     1     113.724 130.102 136.315  0.00  0.00    +0.000 C 
ATOM     29  C   UNL     1     113.273 130.867 137.434  0.00  0.00    +0.000 C 
ATOM     30  C   UNL     1     112.945 130.019 136.057  0.00  0.00    +0.000 C 
ATOM     31  C   UNL     1     112.493 130.783 137.177  0.00  0.00    +0.000 C 
BRANCH  31  34
ATOM     32  O   UNL     1     111.532 130.708 138.231  0.00  0.00    +0.000 OA
ATOM     33  O   UNL     1     111.607 131.879 137.415  0.00  0.00    +0.000 OA
ATOM     34  C   UNL     1     111.877 131.124 137.607  0.00  0.00    +0.000 C 
ENDBRANCH  31  34
ENDBRANCH  22  30
ENDBRANCH   9  22
TORSDOF 5
ENDMDL
MODEL 6
REMARK VINA RESULT:      -9.2      6.946      8.247
REMARK  Name = 101244288
REMARK  5 active torsions:
REMARK  status: ('A' for Active; 'I' for Inactive)
REMARK    1  A    between atoms: O_2  and  C_16
REMARK    2  A    between atoms: O_2  and  C_23
REMARK    3  A    between atoms: O_12  and  C_33
REMARK    4  A    between atoms: C_17  and  C_25
REMARK    5  A    between atoms: C_19  and  C_24
REMARK                            x       y       z     vdW  Elec       q    Type
REMARK                         _______ _______ _______ _____ _____    ______ ____
ROOT
ATOM      1  O   UNL     1     110.756 127.237 136.160  0.00  0.00    +0.000 OA
ATOM      2  O   UNL     1     112.911 126.893 136.128  0.00  0.00    +0.000 OA
ATOM      3  O   UNL     1     112.079 129.600 135.155  0.00  0.00    +0.000 OA
ATOM      4  C   UNL     1     112.179 127.264 136.041  0.00  0.00    +0.000 C 
ATOM      5  C   UNL     1     111.487 126.865 136.247  0.00  0.00    +0.000 C 
ATOM      6  C   UNL     1     112.141 128.035 135.749  0.00  0.00    +0.000 C 
ATOM      7  C   UNL     1     111.410 128.406 135.663  0.00  0.00    +0.000 A 
ATOM      8  C   UNL     1     110.716 128.008 135.869  0.00  0.00    +0.000 A 
ATOM      9  C   UNL     1     109.902 129.186 135.480  0.00  0.00    +0.000 A 
ATOM     10  C   UNL     1     109.949 128.384 135.783  0.00  0.00    +0.000 A 
ATOM     11  C   UNL     1     111.381 129.209 135.358  0.00  0.00    +0.000 A 
ATOM     12  C   UNL     1     110.623 129.602 135.266  0.00  0.00    +0.000 A 
ENDROOT
BRANCH   5  14
ATOM     13  O   UNL     1     111.452 125.050 138.454  0.00  0.00    +0.000 OA
ATOM     14  C   UNL     1     111.527 126.095 136.539  0.00  0.00    +0.000 A 
ATOM     15  C   UNL     1     111.470 125.957 137.350  0.00  0.00    +0.000 A 
ATOM     16  C   UNL     1     111.623 125.461 136.019  0.00  0.00    +0.000 A 
ATOM     17  C   UNL     1     111.509 125.187 137.643  0.00  0.00    +0.000 A 
ATOM     18  C   UNL     1     111.662 124.690 136.311  0.00  0.00    +0.000 A 
ATOM     19  C   UNL     1     111.605 124.554 137.123  0.00  0.00    +0.000 A 
BRANCH  19  20
ATOM     20  O   UNL     1     111.645 123.783 137.415  0.00  0.00    +0.000 OA
ATOM     21  C   UNL     1     112.018 123.193 136.976  0.00  0.00    +0.000 C 
ENDBRANCH  19  20
ENDBRANCH   5  14
BRANCH   9  22
ATOM     22  O   UNL     1     109.169 129.556 135.394  0.00  0.00    +0.000 OA
BRANCH  22  30
ATOM     23  O   UNL     1     109.113 130.050 136.734  0.00  0.00    +0.000 OA
ATOM     24  O   UNL     1     107.867 132.039 135.947  0.00  0.00    +0.000 OA
ATOM     25  O   UNL     1     108.339 130.881 134.870  0.00  0.00    +0.000 OA
ATOM     26  O   UNL     1     108.227 131.870 137.548  0.00  0.00    +0.000 OA
ATOM     27  C   UNL     1     108.283 131.376 136.210  0.00  0.00    +0.000 C 
ATOM     28  C   UNL     1     108.518 130.797 135.670  0.00  0.00    +0.000 C 
ATOM     29  C   UNL     1     108.462 131.292 137.010  0.00  0.00    +0.000 C 
ATOM     30  C   UNL     1     108.934 130.135 135.932  0.00  0.00    +0.000 C 
ATOM     31  C   UNL     1     108.878 130.629 137.272  0.00  0.00    +0.000 C 
BRANCH  31  34
ATOM     32  O   UNL     1     109.738 130.897 138.381  0.00  0.00    +0.000 OA
ATOM     33  O   UNL     1     108.559 130.109 138.564  0.00  0.00    +0.000 OA
ATOM     34  C   UNL     1     109.058 130.545 138.072  0.00  0.00    +0.000 C 
ENDBRANCH  31  34
ENDBRANCH  22  30
ENDBRANCH   9  22
TORSDOF 5
ENDMDL
MODEL 7
REMARK VINA RESULT:      -9.1      7.455      9.032
REMARK  Name = 101244288
REMARK  5 active torsions:
REMARK  status: ('A' for Active; 'I' for Inactive)
REMARK    1  A    between atoms: O_2  and  C_16
REMARK    2  A    between atoms: O_2  and  C_23
REMARK    3  A    between atoms: O_12  and  C_33
REMARK    4  A    between atoms: C_17  and  C_25
REMARK    5  A    between atoms: C_19  and  C_24
REMARK                            x       y       z     vdW  Elec       q    Type
REMARK                         _______ _______ _______ _____ _____    ______ ____
ROOT
ATOM      1  O   UNL     1     111.249 128.819 136.300  0.00  0.00    +0.000 OA
ATOM      2  O   UNL     1     110.474 130.155 137.842  0.00  0.00    +0.000 OA
ATOM      3  O   UNL     1     112.772 128.452 138.728  0.00  0.00    +0.000 OA
ATOM      4  C   UNL     1     110.935 129.584 137.465  0.00  0.00    +0.000 C 
ATOM      5  C   UNL     1     110.788 129.390 136.677  0.00  0.00    +0.000 C 
ATOM      6  C   UNL     1     111.542 129.208 137.877  0.00  0.00    +0.000 C 
ATOM      7  C   UNL     1     112.003 128.637 137.501  0.00  0.00    +0.000 A 
ATOM      8  C   UNL     1     111.857 128.442 136.712  0.00  0.00    +0.000 A 
ATOM      9  C   UNL     1     112.964 127.453 136.733  0.00  0.00    +0.000 A 
ATOM     10  C   UNL     1     112.330 127.848 136.309  0.00  0.00    +0.000 A 
ATOM     11  C   UNL     1     112.633 128.251 137.940  0.00  0.00    +0.000 A 
ATOM     12  C   UNL     1     113.116 127.655 137.554  0.00  0.00    +0.000 A 
ENDROOT
BRANCH   5  14
ATOM     13  O   UNL     1     108.081 129.445 135.763  0.00  0.00    +0.000 OA
ATOM     14  C   UNL     1     110.181 129.767 136.265  0.00  0.00    +0.000 A 
ATOM     15  C   UNL     1     109.435 129.418 136.220  0.00  0.00    +0.000 A 
ATOM     16  C   UNL     1     110.319 130.493 135.899  0.00  0.00    +0.000 A 
ATOM     17  C   UNL     1     108.827 129.794 135.808  0.00  0.00    +0.000 A 
ATOM     18  C   UNL     1     109.712 130.870 135.487  0.00  0.00    +0.000 A 
ATOM     19  C   UNL     1     108.965 130.520 135.442  0.00  0.00    +0.000 A 
BRANCH  19  20
ATOM     20  O   UNL     1     108.358 130.897 135.030  0.00  0.00    +0.000 OA
ATOM     21  C   UNL     1     108.473 131.656 134.727  0.00  0.00    +0.000 C 
ENDBRANCH  19  20
ENDBRANCH   5  14
BRANCH   9  22
ATOM     22  O   UNL     1     113.423 126.882 136.354  0.00  0.00    +0.000 OA
BRANCH  22  30
ATOM     23  O   UNL     1     112.530 125.778 136.515  0.00  0.00    +0.000 OA
ATOM     24  O   UNL     1     114.454 124.287 136.963  0.00  0.00    +0.000 OA
ATOM     25  O   UNL     1     114.706 125.888 136.653  0.00  0.00    +0.000 OA
ATOM     26  O   UNL     1     112.920 123.680 136.974  0.00  0.00    +0.000 OA
ATOM     27  C   UNL     1     113.813 124.784 136.814  0.00  0.00    +0.000 C 
ATOM     28  C   UNL     1     113.939 125.584 136.659  0.00  0.00    +0.000 C 
ATOM     29  C   UNL     1     113.046 124.480 136.819  0.00  0.00    +0.000 C 
ATOM     30  C   UNL     1     113.298 126.081 136.509  0.00  0.00    +0.000 C 
ATOM     31  C   UNL     1     112.405 124.977 136.670  0.00  0.00    +0.000 C 
BRANCH  31  34
ATOM     32  O   UNL     1     111.226 124.607 137.387  0.00  0.00    +0.000 OA
ATOM     33  O   UNL     1     111.282 124.439 135.969  0.00  0.00    +0.000 OA
ATOM     34  C   UNL     1     111.638 124.674 136.675  0.00  0.00    +0.000 C 
ENDBRANCH  31  34
ENDBRANCH  22  30
ENDBRANCH   9  22
TORSDOF 5
ENDMDL
MODEL 8
REMARK VINA RESULT:      -9.1      7.087      8.070
REMARK  Name = 101244288
REMARK  5 active torsions:
REMARK  status: ('A' for Active; 'I' for Inactive)
REMARK    1  A    between atoms: O_2  and  C_16
REMARK    2  A    between atoms: O_2  and  C_23
REMARK    3  A    between atoms: O_12  and  C_33
REMARK    4  A    between atoms: C_17  and  C_25
REMARK    5  A    between atoms: C_19  and  C_24
REMARK                            x       y       z     vdW  Elec       q    Type
REMARK                         _______ _______ _______ _____ _____    ______ ____
ROOT
ATOM      1  O   UNL     1     110.503 127.374 136.634  0.00  0.00    +0.000 OA
ATOM      2  O   UNL     1     110.832 126.620 134.613  0.00  0.00    +0.000 OA
ATOM      3  O   UNL     1     109.200 129.127 134.743  0.00  0.00    +0.000 OA
ATOM      4  C   UNL     1     110.571 127.095 135.234  0.00  0.00    +0.000 C 
ATOM      5  C   UNL     1     110.763 126.898 136.012  0.00  0.00    +0.000 C 
ATOM      6  C   UNL     1     110.119 127.766 135.078  0.00  0.00    +0.000 C 
ATOM      7  C   UNL     1     109.858 128.242 135.700  0.00  0.00    +0.000 A 
ATOM      8  C   UNL     1     110.050 128.046 136.478  0.00  0.00    +0.000 A 
ATOM      9  C   UNL     1     109.312 129.233 136.977  0.00  0.00    +0.000 A 
ATOM     10  C   UNL     1     109.784 128.532 137.134  0.00  0.00    +0.000 A 
ATOM     11  C   UNL     1     109.387 128.939 135.525  0.00  0.00    +0.000 A 
ATOM     12  C   UNL     1     109.112 129.438 136.168  0.00  0.00    +0.000 A 
ENDROOT
BRANCH   5  14
ATOM     13  O   UNL     1     113.307 125.682 136.480  0.00  0.00    +0.000 OA
ATOM     14  C   UNL     1     111.216 126.227 136.168  0.00  0.00    +0.000 A 
ATOM     15  C   UNL     1     112.035 126.290 136.246  0.00  0.00    +0.000 A 
ATOM     16  C   UNL     1     110.850 125.491 136.247  0.00  0.00    +0.000 A 
ATOM     17  C   UNL     1     112.488 125.619 136.402  0.00  0.00    +0.000 A 
ATOM     18  C   UNL     1     111.303 124.820 136.403  0.00  0.00    +0.000 A 
ATOM     19  C   UNL     1     112.122 124.884 136.480  0.00  0.00    +0.000 A 
BRANCH  19  20
ATOM     20  O   UNL     1     112.575 124.212 136.636  0.00  0.00    +0.000 OA
ATOM     21  C   UNL     1     112.206 123.505 136.849  0.00  0.00    +0.000 C 
ENDBRANCH  19  20
ENDBRANCH   5  14
BRANCH   9  22
ATOM     22  O   UNL     1     109.053 129.707 137.601  0.00  0.00    +0.000 OA
BRANCH  22  30
ATOM     23  O   UNL     1     110.259 130.452 137.777  0.00  0.00    +0.000 OA
ATOM     24  O   UNL     1     108.934 132.491 138.235  0.00  0.00    +0.000 OA
ATOM     25  O   UNL     1     108.169 131.066 137.906  0.00  0.00    +0.000 OA
ATOM     26  O   UNL     1     110.582 132.556 138.258  0.00  0.00    +0.000 OA
ATOM     27  C   UNL     1     109.376 131.811 138.082  0.00  0.00    +0.000 C 
ATOM     28  C   UNL     1     108.993 131.099 137.918  0.00  0.00    +0.000 C 
ATOM     29  C   UNL     1     110.199 131.844 138.094  0.00  0.00    +0.000 C 
ATOM     30  C   UNL     1     109.434 130.419 137.765  0.00  0.00    +0.000 C 
ATOM     31  C   UNL     1     110.641 131.164 137.941  0.00  0.00    +0.000 C 
BRANCH  31  34
ATOM     32  O   UNL     1     111.875 131.011 138.645  0.00  0.00    +0.000 OA
ATOM     33  O   UNL     1     111.880 131.413 137.273  0.00  0.00    +0.000 OA
ATOM     34  C   UNL     1     111.465 131.196 137.952  0.00  0.00    +0.000 C 
ENDBRANCH  31  34
ENDBRANCH  22  30
ENDBRANCH   9  22
TORSDOF 5
ENDMDL
MODEL 9
REMARK VINA RESULT:      -9.1      6.651      7.781
REMARK  Name = 101244288
REMARK  5 active torsions:
REMARK  status: ('A' for Active; 'I' for Inactive)
REMARK    1  A    between atoms: O_2  and  C_16
REMARK    2  A    between atoms: O_2  and  C_23
REMARK    3  A    between atoms: O_12  and  C_33
REMARK    4  A    between atoms: C_17  and  C_25
REMARK    5  A    between atoms: C_19  and  C_24
REMARK                            x       y       z     vdW  Elec       q    Type
REMARK                         _______ _______ _______ _____ _____    ______ ____
ROOT
ATOM      1  O   UNL     1     112.331 126.325 139.147  0.00  0.00    +0.000 OA
ATOM      2  O   UNL     1     113.954 125.833 137.773  0.00  0.00    +0.000 OA
ATOM      3  O   UNL     1     114.857 126.964 140.394  0.00  0.00    +0.000 OA
ATOM      4  C   UNL     1     113.554 126.093 138.446  0.00  0.00    +0.000 C 
ATOM      5  C   UNL     1     112.730 126.065 138.473  0.00  0.00    +0.000 C 
ATOM      6  C   UNL     1     113.979 126.381 139.091  0.00  0.00    +0.000 C 
ATOM      7  C   UNL     1     113.580 126.641 139.764  0.00  0.00    +0.000 A 
ATOM      8  C   UNL     1     112.755 126.613 139.793  0.00  0.00    +0.000 A 
ATOM      9  C   UNL     1     112.765 127.183 141.164  0.00  0.00    +0.000 A 
ATOM     10  C   UNL     1     112.328 126.881 140.488  0.00  0.00    +0.000 A 
ATOM     11  C   UNL     1     114.033 126.940 140.431  0.00  0.00    +0.000 A 
ATOM     12  C   UNL     1     113.623 127.212 141.135  0.00  0.00    +0.000 A 
ENDROOT
BRANCH   5  14
ATOM     13  O   UNL     1     111.524 123.880 137.081  0.00  0.00    +0.000 OA
ATOM     14  C   UNL     1     112.305 125.776 137.827  0.00  0.00    +0.000 A 
ATOM     15  C   UNL     1     112.127 124.972 137.777  0.00  0.00    +0.000 A 
ATOM     16  C   UNL     1     112.060 126.292 137.232  0.00  0.00    +0.000 A 
ATOM     17  C   UNL     1     111.703 124.683 137.132  0.00  0.00    +0.000 A 
ATOM     18  C   UNL     1     111.635 126.003 136.586  0.00  0.00    +0.000 A 
ATOM     19  C   UNL     1     111.457 125.199 136.536  0.00  0.00    +0.000 A 
BRANCH  19  20
ATOM     20  O   UNL     1     111.032 124.910 135.890  0.00  0.00    +0.000 OA
ATOM     21  C   UNL     1     110.629 125.432 135.394  0.00  0.00    +0.000 C 
ENDBRANCH  19  20
ENDBRANCH   5  14
BRANCH   9  22
ATOM     22  O   UNL     1     112.363 127.442 141.836  0.00  0.00    +0.000 OA
BRANCH  22  30
ATOM     23  O   UNL     1     112.511 128.844 141.602  0.00  0.00    +0.000 OA
ATOM     24  O   UNL     1     110.224 129.229 142.467  0.00  0.00    +0.000 OA
ATOM     25  O   UNL     1     110.839 127.699 142.413  0.00  0.00    +0.000 OA
ATOM     26  O   UNL     1     111.134 130.502 141.945  0.00  0.00    +0.000 OA
ATOM     27  C   UNL     1     110.986 129.101 142.179  0.00  0.00    +0.000 C 
ATOM     28  C   UNL     1     111.293 128.335 142.152  0.00  0.00    +0.000 C 
ATOM     29  C   UNL     1     111.441 129.737 141.918  0.00  0.00    +0.000 C 
ATOM     30  C   UNL     1     112.055 128.207 141.863  0.00  0.00    +0.000 C 
ATOM     31  C   UNL     1     112.203 129.609 141.630  0.00  0.00    +0.000 C 
BRANCH  31  34
ATOM     32  O   UNL     1     113.195 130.606 141.881  0.00  0.00    +0.000 OA
ATOM     33  O   UNL     1     112.577 130.521 140.595  0.00  0.00    +0.000 OA
ATOM     34  C   UNL     1     112.658 130.245 141.368  0.00  0.00    +0.000 C 
ENDBRANCH  31  34
ENDBRANCH  22  30
ENDBRANCH   9  22
TORSDOF 5
ENDMDL
MODEL 10
REMARK VINA RESULT:      -9.0      4.015      6.124
REMARK  Name = 101244288
REMARK  5 active torsions:
REMARK  status: ('A' for Active; 'I' for Inactive)
REMARK    1  A    between atoms: O_2  and  C_16
REMARK    2  A    between atoms: O_2  and  C_23
REMARK    3  A    between atoms: O_12  and  C_33
REMARK    4  A    between atoms: C_17  and  C_25
REMARK    5  A    between atoms: C_19  and  C_24
REMARK                            x       y       z     vdW  Elec       q    Type
REMARK                         _______ _______ _______ _____ _____    ______ ____
ROOT
ATOM      1  O   UNL     1     104.505 125.369 145.802  0.00  0.00    +0.000 OA
ATOM      2  O   UNL     1     105.171 124.090 147.440  0.00  0.00    +0.000 OA
ATOM      3  O   UNL     1     107.333 125.774 146.232  0.00  0.00    +0.000 OA
ATOM      4  C   UNL     1     105.184 124.642 146.827  0.00  0.00    +0.000 C 
ATOM      5  C   UNL     1     104.491 124.817 146.415  0.00  0.00    +0.000 C 
ATOM      6  C   UNL     1     105.890 125.018 146.627  0.00  0.00    +0.000 C 
ATOM      7  C   UNL     1     105.903 125.570 146.014  0.00  0.00    +0.000 A 
ATOM      8  C   UNL     1     105.211 125.746 145.601  0.00  0.00    +0.000 A 
ATOM      9  C   UNL     1     105.944 126.714 144.748  0.00  0.00    +0.000 A 
ATOM     10  C   UNL     1     105.212 126.319 144.961  0.00  0.00    +0.000 A 
ATOM     11  C   UNL     1     106.645 125.956 145.814  0.00  0.00    +0.000 A 
ATOM     12  C   UNL     1     106.665 126.532 145.177  0.00  0.00    +0.000 A 
ENDROOT
BRANCH   5  14
ATOM     13  O   UNL     1     102.580 122.740 145.966  0.00  0.00    +0.000 OA
ATOM     14  C   UNL     1     103.785 124.440 146.616  0.00  0.00    +0.000 A 
ATOM     15  C   UNL     1     103.535 123.779 146.191  0.00  0.00    +0.000 A 
ATOM     16  C   UNL     1     103.329 124.725 147.241  0.00  0.00    +0.000 A 
ATOM     17  C   UNL     1     102.830 123.402 146.391  0.00  0.00    +0.000 A 
ATOM     18  C   UNL     1     102.623 124.348 147.442  0.00  0.00    +0.000 A 
ATOM     19  C   UNL     1     102.374 123.686 147.016  0.00  0.00    +0.000 A 
BRANCH  19  20
ATOM     20  O   UNL     1     101.668 123.309 147.217  0.00  0.00    +0.000 OA
ATOM     21  C   UNL     1     101.204 123.601 147.834  0.00  0.00    +0.000 C 
ENDBRANCH  19  20
ENDBRANCH   5  14
BRANCH   9  22
ATOM     22  O   UNL     1     105.955 127.266 144.134  0.00  0.00    +0.000 OA
BRANCH  22  30
ATOM     23  O   UNL     1     106.476 126.409 143.116  0.00  0.00    +0.000 OA
ATOM     24  O   UNL     1     104.955 127.447 141.463  0.00  0.00    +0.000 OA
ATOM     25  O   UNL     1     104.941 127.958 143.032  0.00  0.00    +0.000 OA
ATOM     26  O   UNL     1     105.983 126.245 140.997  0.00  0.00    +0.000 OA
ATOM     27  C   UNL     1     105.462 127.101 142.014  0.00  0.00    +0.000 C 
ATOM     28  C   UNL     1     105.454 127.357 142.799  0.00  0.00    +0.000 C 
ATOM     29  C   UNL     1     105.975 126.500 141.781  0.00  0.00    +0.000 C 
ATOM     30  C   UNL     1     105.961 127.011 143.350  0.00  0.00    +0.000 C 
ATOM     31  C   UNL     1     106.482 126.154 142.332  0.00  0.00    +0.000 C 
BRANCH  31  34
ATOM     32  O   UNL     1     106.746 124.766 142.119  0.00  0.00    +0.000 OA
ATOM     33  O   UNL     1     107.760 125.736 141.848  0.00  0.00    +0.000 OA
ATOM     34  C   UNL     1     106.997 125.552 142.099  0.00  0.00    +0.000 C 
ENDBRANCH  31  34
ENDBRANCH  22  30
ENDBRANCH   9  22
TORSDOF 5
ENDMDL
