MODEL 1
REMARK VINA RESULT:      -9.1      0.000      0.000
REMARK  Name = 44257887
REMARK  6 active torsions:
REMARK  status: ('A' for Active; 'I' for Inactive)
REMARK    1  A    between atoms: O_2  and  C_16
REMARK    2  A    between atoms: O_2  and  C_18
REMARK    3  A    between atoms: O_6  and  C_17
REMARK    4  A    between atoms: O_11  and  C_33
REMARK    5  A    between atoms: C_15  and  C_17
REMARK    6  A    between atoms: C_26  and  C_28
REMARK                            x       y       z     vdW  Elec       q    Type
REMARK                         _______ _______ _______ _____ _____    ______ ____
ROOT
ATOM      1  O   UNL     1     103.139 130.269 141.972  0.00  0.00    +0.000 OA
ATOM      2  O   UNL     1     103.671 128.016 140.244  0.00  0.00    +0.000 OA
ATOM      3  O   UNL     1     102.748 129.053 139.853  0.00  0.00    +0.000 OA
ATOM      4  C   UNL     1     104.490 128.514 142.268  0.00  0.00    +0.000 A 
ATOM      5  C   UNL     1     104.077 129.252 142.416  0.00  0.00    +0.000 A 
ATOM      6  C   UNL     1     104.355 128.092 141.532  0.00  0.00    +0.000 A 
ATOM      7  C   UNL     1     103.534 129.559 141.825  0.00  0.00    +0.000 A 
ATOM      8  C   UNL     1     103.403 129.155 141.119  0.00  0.00    +0.000 A 
ATOM      9  C   UNL     1     103.808 128.414 140.954  0.00  0.00    +0.000 A 
ATOM     10  C   UNL     1     102.878 129.459 140.559  0.00  0.00    +0.000 A 
ATOM     11  C   UNL     1     102.615 130.574 141.413  0.00  0.00    +0.000 A 
ATOM     12  C   UNL     1     102.485 130.168 140.707  0.00  0.00    +0.000 A 
ENDROOT
BRANCH  11  13
ATOM     13  C   UNL     1     102.221 131.283 141.561  0.00  0.00    +0.000 A 
ATOM     14  C   UNL     1     102.578 132.002 141.368  0.00  0.00    +0.000 A 
ATOM     15  C   UNL     1     101.469 131.275 141.900  0.00  0.00    +0.000 A 
ATOM     16  C   UNL     1     102.184 132.711 141.516  0.00  0.00    +0.000 A 
ATOM     17  C   UNL     1     101.074 131.984 142.047  0.00  0.00    +0.000 A 
ATOM     18  C   UNL     1     101.432 132.702 141.855  0.00  0.00    +0.000 A 
BRANCH  18  19
ATOM     19  O   UNL     1     101.037 133.412 142.002  0.00  0.00    +0.000 OA
ATOM     20  C   UNL     1     101.300 134.110 141.651  0.00  0.00    +0.000 C 
ENDBRANCH  18  19
ENDBRANCH  11  13
BRANCH   4  21
ATOM     21  O   UNL     1     105.014 128.213 142.829  0.00  0.00    +0.000 OA
BRANCH  21  30
ATOM     22  O   UNL     1     106.183 128.812 142.267  0.00  0.00    +0.000 OA
ATOM     23  O   UNL     1     107.527 126.860 142.981  0.00  0.00    +0.000 OA
ATOM     24  O   UNL     1     108.248 128.110 142.181  0.00  0.00    +0.000 OA
ATOM     25  O   UNL     1     105.910 126.911 143.305  0.00  0.00    +0.000 OA
ATOM     26  C   UNL     1     107.079 127.510 142.743  0.00  0.00    +0.000 C 
ATOM     27  C   UNL     1     107.441 128.135 142.343  0.00  0.00    +0.000 C 
ATOM     28  C   UNL     1     106.271 127.536 142.905  0.00  0.00    +0.000 C 
ATOM     29  C   UNL     1     106.993 128.786 142.105  0.00  0.00    +0.000 C 
ATOM     30  C   UNL     1     105.824 128.187 142.667  0.00  0.00    +0.000 C 
BRANCH  29  32
ATOM     31  O   UNL     1     107.508 129.349 140.897  0.00  0.00    +0.000 OA
ATOM     32  C   UNL     1     107.353 129.411 141.705  0.00  0.00    +0.000 C 
BRANCH  32  33
ATOM     33  O   UNL     1     107.557 130.099 142.114  0.00  0.00    +0.000 OA
ATOM     34  C   UNL     1     107.705 130.796 141.699  0.00  0.00    +0.000 C 
ENDBRANCH  32  33
ENDBRANCH  29  32
ENDBRANCH  21  30
ENDBRANCH   4  21
TORSDOF 6
ENDMDL
MODEL 2
REMARK VINA RESULT:      -9.0      6.952      9.200
REMARK  Name = 44257887
REMARK  6 active torsions:
REMARK  status: ('A' for Active; 'I' for Inactive)
REMARK    1  A    between atoms: O_2  and  C_16
REMARK    2  A    between atoms: O_2  and  C_18
REMARK    3  A    between atoms: O_6  and  C_17
REMARK    4  A    between atoms: O_11  and  C_33
REMARK    5  A    between atoms: C_15  and  C_17
REMARK    6  A    between atoms: C_26  and  C_28
REMARK                            x       y       z     vdW  Elec       q    Type
REMARK                         _______ _______ _______ _____ _____    ______ ____
ROOT
ATOM      1  O   UNL     1     110.336 127.924 136.002  0.00  0.00    +0.000 OA
ATOM      2  O   UNL     1     107.890 129.449 135.803  0.00  0.00    +0.000 OA
ATOM      3  O   UNL     1     107.873 128.007 135.772  0.00  0.00    +0.000 OA
ATOM      4  C   UNL     1     110.012 130.134 136.016  0.00  0.00    +0.000 A 
ATOM      5  C   UNL     1     110.410 129.374 136.038  0.00  0.00    +0.000 A 
ATOM      6  C   UNL     1     109.157 130.164 135.937  0.00  0.00    +0.000 A 
ATOM      7  C   UNL     1     109.948 128.652 135.980  0.00  0.00    +0.000 A 
ATOM      8  C   UNL     1     109.127 128.679 135.904  0.00  0.00    +0.000 A 
ATOM      9  C   UNL     1     108.712 129.431 135.880  0.00  0.00    +0.000 A 
ATOM     10  C   UNL     1     108.694 127.979 135.849  0.00  0.00    +0.000 A 
ATOM     11  C   UNL     1     109.903 127.223 135.947  0.00  0.00    +0.000 A 
ATOM     12  C   UNL     1     109.083 127.251 135.870  0.00  0.00    +0.000 A 
ENDROOT
BRANCH  11  13
ATOM     13  C   UNL     1     110.291 126.496 135.968  0.00  0.00    +0.000 A 
ATOM     14  C   UNL     1     110.505 126.163 136.693  0.00  0.00    +0.000 A 
ATOM     15  C   UNL     1     110.465 126.100 135.266  0.00  0.00    +0.000 A 
ATOM     16  C   UNL     1     110.893 125.435 136.714  0.00  0.00    +0.000 A 
ATOM     17  C   UNL     1     110.853 125.372 135.286  0.00  0.00    +0.000 A 
ATOM     18  C   UNL     1     111.067 125.040 136.011  0.00  0.00    +0.000 A 
BRANCH  18  19
ATOM     19  O   UNL     1     111.454 124.312 136.032  0.00  0.00    +0.000 OA
ATOM     20  C   UNL     1     112.100 124.203 136.534  0.00  0.00    +0.000 C 
ENDBRANCH  18  19
ENDBRANCH  11  13
BRANCH   4  21
ATOM     21  O   UNL     1     110.448 130.833 136.072  0.00  0.00    +0.000 OA
BRANCH  21  30
ATOM     22  O   UNL     1     110.629 130.865 137.489  0.00  0.00    +0.000 OA
ATOM     23  O   UNL     1     110.178 133.298 137.491  0.00  0.00    +0.000 OA
ATOM     24  O   UNL     1     110.510 132.519 138.907  0.00  0.00    +0.000 OA
ATOM     25  O   UNL     1     110.147 132.455 136.073  0.00  0.00    +0.000 OA
ATOM     26  C   UNL     1     110.329 132.487 137.490  0.00  0.00    +0.000 C 
ATOM     27  C   UNL     1     110.494 132.098 138.199  0.00  0.00    +0.000 C 
ATOM     28  C   UNL     1     110.313 132.066 136.782  0.00  0.00    +0.000 C 
ATOM     29  C   UNL     1     110.645 131.287 138.198  0.00  0.00    +0.000 C 
ATOM     30  C   UNL     1     110.463 131.255 136.781  0.00  0.00    +0.000 C 
BRANCH  29  32
ATOM     31  O   UNL     1     111.572 130.920 139.221  0.00  0.00    +0.000 OA
ATOM     32  C   UNL     1     110.811 130.897 138.906  0.00  0.00    +0.000 C 
BRANCH  32  33
ATOM     33  O   UNL     1     110.213 130.483 139.298  0.00  0.00    +0.000 OA
ATOM     34  C   UNL     1     110.409 129.904 139.852  0.00  0.00    +0.000 C 
ENDBRANCH  32  33
ENDBRANCH  29  32
ENDBRANCH  21  30
ENDBRANCH   4  21
TORSDOF 6
ENDMDL
MODEL 3
REMARK VINA RESULT:      -8.9      8.568     10.059
REMARK  Name = 44257887
REMARK  6 active torsions:
REMARK  status: ('A' for Active; 'I' for Inactive)
REMARK    1  A    between atoms: O_2  and  C_16
REMARK    2  A    between atoms: O_2  and  C_18
REMARK    3  A    between atoms: O_6  and  C_17
REMARK    4  A    between atoms: O_11  and  C_33
REMARK    5  A    between atoms: C_15  and  C_17
REMARK    6  A    between atoms: C_26  and  C_28
REMARK                            x       y       z     vdW  Elec       q    Type
REMARK                         _______ _______ _______ _____ _____    ______ ____
ROOT
ATOM      1  O   UNL     1     112.277 129.171 136.945  0.00  0.00    +0.000 OA
ATOM      2  O   UNL     1     114.472 128.062 135.429  0.00  0.00    +0.000 OA
ATOM      3  O   UNL     1     114.011 129.409 135.195  0.00  0.00    +0.000 OA
ATOM      4  C   UNL     1     113.226 127.152 137.052  0.00  0.00    +0.000 A 
ATOM      5  C   UNL     1     112.700 127.810 137.221  0.00  0.00    +0.000 A 
ATOM      6  C   UNL     1     113.828 127.234 136.445  0.00  0.00    +0.000 A 
ATOM      7  C   UNL     1     112.784 128.542 136.779  0.00  0.00    +0.000 A 
ATOM      8  C   UNL     1     113.362 128.622 136.196  0.00  0.00    +0.000 A 
ATOM      9  C   UNL     1     113.897 127.974 136.014  0.00  0.00    +0.000 A 
ATOM     10  C   UNL     1     113.432 129.330 135.779  0.00  0.00    +0.000 A 
ATOM     11  C   UNL     1     112.347 129.880 136.528  0.00  0.00    +0.000 A 
ATOM     12  C   UNL     1     112.925 129.959 135.945  0.00  0.00    +0.000 A 
ENDROOT
BRANCH  11  13
ATOM     13  C   UNL     1     111.839 130.509 136.694  0.00  0.00    +0.000 A 
ATOM     14  C   UNL     1     111.090 130.536 136.350  0.00  0.00    +0.000 A 
ATOM     15  C   UNL     1     112.081 131.111 137.204  0.00  0.00    +0.000 A 
ATOM     16  C   UNL     1     110.583 131.166 136.515  0.00  0.00    +0.000 A 
ATOM     17  C   UNL     1     111.575 131.740 137.370  0.00  0.00    +0.000 A 
ATOM     18  C   UNL     1     110.826 131.767 137.026  0.00  0.00    +0.000 A 
BRANCH  18  19
ATOM     19  O   UNL     1     110.318 132.396 137.192  0.00  0.00    +0.000 OA
ATOM     20  C   UNL     1     110.460 133.139 136.862  0.00  0.00    +0.000 C 
ENDBRANCH  18  19
ENDBRANCH  11  13
BRANCH   4  21
ATOM     21  O   UNL     1     113.152 126.445 137.471  0.00  0.00    +0.000 OA
BRANCH  21  30
ATOM     22  O   UNL     1     112.052 125.920 136.726  0.00  0.00    +0.000 OA
ATOM     23  O   UNL     1     113.002 123.643 136.926  0.00  0.00    +0.000 OA
ATOM     24  O   UNL     1     111.585 123.877 136.114  0.00  0.00    +0.000 OA
ATOM     25  O   UNL     1     113.786 124.927 137.605  0.00  0.00    +0.000 OA
ATOM     26  C   UNL     1     112.686 124.402 136.860  0.00  0.00    +0.000 C 
ATOM     27  C   UNL     1     111.977 124.518 136.453  0.00  0.00    +0.000 C 
ATOM     28  C   UNL     1     113.077 125.043 137.199  0.00  0.00    +0.000 C 
ATOM     29  C   UNL     1     111.660 125.277 136.386  0.00  0.00    +0.000 C 
ATOM     30  C   UNL     1     112.760 125.802 137.132  0.00  0.00    +0.000 C 
BRANCH  29  32
ATOM     31  O   UNL     1     110.233 125.364 136.386  0.00  0.00    +0.000 OA
ATOM     32  C   UNL     1     110.952 125.395 135.981  0.00  0.00    +0.000 C 
BRANCH  32  33
ATOM     33  O   UNL     1     110.962 125.543 135.168  0.00  0.00    +0.000 OA
ATOM     34  C   UNL     1     110.309 125.895 134.806  0.00  0.00    +0.000 C 
ENDBRANCH  32  33
ENDBRANCH  29  32
ENDBRANCH  21  30
ENDBRANCH   4  21
TORSDOF 6
ENDMDL
MODEL 4
REMARK VINA RESULT:      -8.9      2.303      4.249
REMARK  Name = 44257887
REMARK  6 active torsions:
REMARK  status: ('A' for Active; 'I' for Inactive)
REMARK    1  A    between atoms: O_2  and  C_16
REMARK    2  A    between atoms: O_2  and  C_18
REMARK    3  A    between atoms: O_6  and  C_17
REMARK    4  A    between atoms: O_11  and  C_33
REMARK    5  A    between atoms: C_15  and  C_17
REMARK    6  A    between atoms: C_26  and  C_28
REMARK                            x       y       z     vdW  Elec       q    Type
REMARK                         _______ _______ _______ _____ _____    ______ ____
ROOT
ATOM      1  O   UNL     1     104.946 127.755 142.546  0.00  0.00    +0.000 OA
ATOM      2  O   UNL     1     107.822 127.540 142.709  0.00  0.00    +0.000 OA
ATOM      3  O   UNL     1     107.188 128.780 142.333  0.00  0.00    +0.000 OA
ATOM      4  C   UNL     1     106.230 126.010 143.090  0.00  0.00    +0.000 A 
ATOM      5  C   UNL     1     105.532 126.483 142.930  0.00  0.00    +0.000 A 
ATOM      6  C   UNL     1     107.010 126.366 143.016  0.00  0.00    +0.000 A 
ATOM      7  C   UNL     1     105.621 127.305 142.698  0.00  0.00    +0.000 A 
ATOM      8  C   UNL     1     106.367 127.648 142.627  0.00  0.00    +0.000 A 
ATOM      9  C   UNL     1     107.079 127.190 142.783  0.00  0.00    +0.000 A 
ATOM     10  C   UNL     1     106.440 128.439 142.404  0.00  0.00    +0.000 A 
ATOM     11  C   UNL     1     105.017 128.546 142.323  0.00  0.00    +0.000 A 
ATOM     12  C   UNL     1     105.765 128.887 142.252  0.00  0.00    +0.000 A 
ENDROOT
BRANCH  11  13
ATOM     13  C   UNL     1     104.343 128.996 142.171  0.00  0.00    +0.000 A 
ATOM     14  C   UNL     1     104.036 129.491 142.755  0.00  0.00    +0.000 A 
ATOM     15  C   UNL     1     103.974 128.950 141.434  0.00  0.00    +0.000 A 
ATOM     16  C   UNL     1     103.361 129.940 142.603  0.00  0.00    +0.000 A 
ATOM     17  C   UNL     1     103.299 129.399 141.281  0.00  0.00    +0.000 A 
ATOM     18  C   UNL     1     102.993 129.894 141.865  0.00  0.00    +0.000 A 
BRANCH  18  19
ATOM     19  O   UNL     1     102.318 130.344 141.713  0.00  0.00    +0.000 OA
ATOM     20  C   UNL     1     102.391 131.138 141.502  0.00  0.00    +0.000 C 
ENDBRANCH  18  19
ENDBRANCH  11  13
BRANCH   4  21
ATOM     21  O   UNL     1     106.155 125.220 143.313  0.00  0.00    +0.000 OA
BRANCH  21  30
ATOM     22  O   UNL     1     106.380 125.401 144.712  0.00  0.00    +0.000 OA
ATOM     23  O   UNL     1     104.653 123.700 145.211  0.00  0.00    +0.000 OA
ATOM     24  O   UNL     1     105.454 124.448 146.444  0.00  0.00    +0.000 OA
ATOM     25  O   UNL     1     105.003 124.086 143.645  0.00  0.00    +0.000 OA
ATOM     26  C   UNL     1     105.229 124.267 145.044  0.00  0.00    +0.000 C 
ATOM     27  C   UNL     1     105.629 124.641 145.662  0.00  0.00    +0.000 C 
ATOM     28  C   UNL     1     105.404 124.460 144.262  0.00  0.00    +0.000 C 
ATOM     29  C   UNL     1     106.205 125.208 145.495  0.00  0.00    +0.000 C 
ATOM     30  C   UNL     1     105.979 125.026 144.096  0.00  0.00    +0.000 C 
BRANCH  29  32
ATOM     31  O   UNL     1     107.269 125.226 146.450  0.00  0.00    +0.000 OA
ATOM     32  C   UNL     1     106.606 125.582 146.111  0.00  0.00    +0.000 C 
BRANCH  32  33
ATOM     33  O   UNL     1     106.344 126.314 146.389  0.00  0.00    +0.000 OA
ATOM     34  C   UNL     1     106.847 126.789 146.838  0.00  0.00    +0.000 C 
ENDBRANCH  32  33
ENDBRANCH  29  32
ENDBRANCH  21  30
ENDBRANCH   4  21
TORSDOF 6
ENDMDL
MODEL 5
REMARK VINA RESULT:      -8.8      4.013      6.463
REMARK  Name = 44257887
REMARK  6 active torsions:
REMARK  status: ('A' for Active; 'I' for Inactive)
REMARK    1  A    between atoms: O_2  and  C_16
REMARK    2  A    between atoms: O_2  and  C_18
REMARK    3  A    between atoms: O_6  and  C_17
REMARK    4  A    between atoms: O_11  and  C_33
REMARK    5  A    between atoms: C_15  and  C_17
REMARK    6  A    between atoms: C_26  and  C_28
REMARK                            x       y       z     vdW  Elec       q    Type
REMARK                         _______ _______ _______ _____ _____    ______ ____
ROOT
ATOM      1  O   UNL     1     105.394 126.441 144.100  0.00  0.00    +0.000 OA
ATOM      2  O   UNL     1     107.223 126.346 146.333  0.00  0.00    +0.000 OA
ATOM      3  O   UNL     1     107.218 127.465 145.422  0.00  0.00    +0.000 OA
ATOM      4  C   UNL     1     105.661 124.881 145.676  0.00  0.00    +0.000 A 
ATOM      5  C   UNL     1     105.357 125.291 144.986  0.00  0.00    +0.000 A 
ATOM      6  C   UNL     1     106.295 125.236 146.136  0.00  0.00    +0.000 A 
ATOM      7  C   UNL     1     105.690 126.052 144.764  0.00  0.00    +0.000 A 
ATOM      8  C   UNL     1     106.298 126.393 145.204  0.00  0.00    +0.000 A 
ATOM      9  C   UNL     1     106.615 125.997 145.898  0.00  0.00    +0.000 A 
ATOM     10  C   UNL     1     106.609 127.124 144.981  0.00  0.00    +0.000 A 
ATOM     11  C   UNL     1     105.705 127.172 143.876  0.00  0.00    +0.000 A 
ATOM     12  C   UNL     1     106.313 127.513 144.317  0.00  0.00    +0.000 A 
ENDROOT
BRANCH  11  13
ATOM     13  C   UNL     1     105.409 127.562 143.212  0.00  0.00    +0.000 A 
ATOM     14  C   UNL     1     104.989 128.267 143.300  0.00  0.00    +0.000 A 
ATOM     15  C   UNL     1     105.532 127.247 142.459  0.00  0.00    +0.000 A 
ATOM     16  C   UNL     1     104.693 128.657 142.636  0.00  0.00    +0.000 A 
ATOM     17  C   UNL     1     105.236 127.636 141.795  0.00  0.00    +0.000 A 
ATOM     18  C   UNL     1     104.817 128.341 141.883  0.00  0.00    +0.000 A 
BRANCH  18  19
ATOM     19  O   UNL     1     104.520 128.730 141.219  0.00  0.00    +0.000 OA
ATOM     20  C   UNL     1     103.706 128.809 141.116  0.00  0.00    +0.000 C 
ENDBRANCH  18  19
ENDBRANCH  11  13
BRANCH   4  21
ATOM     21  O   UNL     1     105.347 124.151 145.896  0.00  0.00    +0.000 OA
BRANCH  21  30
ATOM     22  O   UNL     1     104.450 124.631 146.900  0.00  0.00    +0.000 OA
ATOM     23  O   UNL     1     102.761 122.970 146.183  0.00  0.00    +0.000 OA
ATOM     24  O   UNL     1     102.427 124.003 147.426  0.00  0.00    +0.000 OA
ATOM     25  O   UNL     1     104.221 123.044 145.419  0.00  0.00    +0.000 OA
ATOM     26  C   UNL     1     103.324 123.523 146.422  0.00  0.00    +0.000 C 
ATOM     27  C   UNL     1     103.156 124.040 147.044  0.00  0.00    +0.000 C 
ATOM     28  C   UNL     1     104.053 123.560 146.040  0.00  0.00    +0.000 C 
ATOM     29  C   UNL     1     103.720 124.593 147.282  0.00  0.00    +0.000 C 
ATOM     30  C   UNL     1     104.617 124.114 146.279  0.00  0.00    +0.000 C 
BRANCH  29  32
ATOM     31  O   UNL     1     103.088 125.779 147.771  0.00  0.00    +0.000 OA
ATOM     32  C   UNL     1     103.553 125.110 147.903  0.00  0.00    +0.000 C 
BRANCH  32  33
ATOM     33  O   UNL     1     103.853 124.958 148.658  0.00  0.00    +0.000 OA
ATOM     34  C   UNL     1     103.874 125.560 149.222  0.00  0.00    +0.000 C 
ENDBRANCH  32  33
ENDBRANCH  29  32
ENDBRANCH  21  30
ENDBRANCH   4  21
TORSDOF 6
ENDMDL
MODEL 6
REMARK VINA RESULT:      -8.8      7.590     10.336
REMARK  Name = 44257887
REMARK  6 active torsions:
REMARK  status: ('A' for Active; 'I' for Inactive)
REMARK    1  A    between atoms: O_2  and  C_16
REMARK    2  A    between atoms: O_2  and  C_18
REMARK    3  A    between atoms: O_6  and  C_17
REMARK    4  A    between atoms: O_11  and  C_33
REMARK    5  A    between atoms: C_15  and  C_17
REMARK    6  A    between atoms: C_26  and  C_28
REMARK                            x       y       z     vdW  Elec       q    Type
REMARK                         _______ _______ _______ _____ _____    ______ ____
ROOT
ATOM      1  O   UNL     1     112.418 128.222 135.367  0.00  0.00    +0.000 OA
ATOM      2  O   UNL     1     109.569 128.433 134.937  0.00  0.00    +0.000 OA
ATOM      3  O   UNL     1     110.425 129.589 134.834  0.00  0.00    +0.000 OA
ATOM      4  C   UNL     1     110.830 126.653 135.448  0.00  0.00    +0.000 A 
ATOM      5  C   UNL     1     111.602 127.026 135.483  0.00  0.00    +0.000 A 
ATOM      6  C   UNL     1     110.137 127.127 135.263  0.00  0.00    +0.000 A 
ATOM      7  C   UNL     1     111.673 127.869 135.332  0.00  0.00    +0.000 A 
ATOM      8  C   UNL     1     111.009 128.325 135.155  0.00  0.00    +0.000 A 
ATOM      9  C   UNL     1     110.228 127.969 135.115  0.00  0.00    +0.000 A 
ATOM     10  C   UNL     1     111.090 129.134 135.012  0.00  0.00    +0.000 A 
ATOM     11  C   UNL     1     112.499 129.030 135.224  0.00  0.00    +0.000 A 
ATOM     12  C   UNL     1     111.835 129.486 135.047  0.00  0.00    +0.000 A 
ENDROOT
BRANCH  11  13
ATOM     13  C   UNL     1     113.244 129.384 135.259  0.00  0.00    +0.000 A 
ATOM     14  C   UNL     1     113.478 129.788 135.939  0.00  0.00    +0.000 A 
ATOM     15  C   UNL     1     113.755 129.332 134.614  0.00  0.00    +0.000 A 
ATOM     16  C   UNL     1     114.222 130.141 135.974  0.00  0.00    +0.000 A 
ATOM     17  C   UNL     1     114.500 129.685 134.647  0.00  0.00    +0.000 A 
ATOM     18  C   UNL     1     114.733 130.089 135.328  0.00  0.00    +0.000 A 
BRANCH  18  19
ATOM     19  O   UNL     1     115.478 130.443 135.362  0.00  0.00    +0.000 OA
ATOM     20  C   UNL     1     115.606 131.172 134.999  0.00  0.00    +0.000 C 
ENDBRANCH  18  19
ENDBRANCH  11  13
BRANCH   4  21
ATOM     21  O   UNL     1     110.752 125.844 135.591  0.00  0.00    +0.000 OA
BRANCH  21  30
ATOM     22  O   UNL     1     110.639 125.959 137.011  0.00  0.00    +0.000 OA
ATOM     23  O   UNL     1     111.839 123.811 137.280  0.00  0.00    +0.000 OA
ATOM     24  O   UNL     1     111.326 124.641 138.610  0.00  0.00    +0.000 OA
ATOM     25  O   UNL     1     111.552 124.413 135.770  0.00  0.00    +0.000 OA
ATOM     26  C   UNL     1     111.439 124.527 137.190  0.00  0.00    +0.000 C 
ATOM     27  C   UNL     1     111.183 124.942 137.856  0.00  0.00    +0.000 C 
ATOM     28  C   UNL     1     111.296 124.827 136.436  0.00  0.00    +0.000 C 
ATOM     29  C   UNL     1     110.783 125.658 137.767  0.00  0.00    +0.000 C 
ATOM     30  C   UNL     1     110.896 125.543 136.347  0.00  0.00    +0.000 C 
BRANCH  29  32
ATOM     31  O   UNL     1     111.063 126.514 138.876  0.00  0.00    +0.000 OA
ATOM     32  C   UNL     1     110.526 126.073 138.431  0.00  0.00    +0.000 C 
BRANCH  32  33
ATOM     33  O   UNL     1     109.731 126.047 138.652  0.00  0.00    +0.000 OA
ATOM     34  C   UNL     1     109.445 126.568 139.224  0.00  0.00    +0.000 C 
ENDBRANCH  32  33
ENDBRANCH  29  32
ENDBRANCH  21  30
ENDBRANCH   4  21
TORSDOF 6
ENDMDL
MODEL 7
REMARK VINA RESULT:      -8.7      7.481     10.146
REMARK  Name = 44257887
REMARK  6 active torsions:
REMARK  status: ('A' for Active; 'I' for Inactive)
REMARK    1  A    between atoms: O_2  and  C_16
REMARK    2  A    between atoms: O_2  and  C_18
REMARK    3  A    between atoms: O_6  and  C_17
REMARK    4  A    between atoms: O_11  and  C_33
REMARK    5  A    between atoms: C_15  and  C_17
REMARK    6  A    between atoms: C_26  and  C_28
REMARK                            x       y       z     vdW  Elec       q    Type
REMARK                         _______ _______ _______ _____ _____    ______ ____
ROOT
ATOM      1  O   UNL     1     111.053 126.313 136.601  0.00  0.00    +0.000 OA
ATOM      2  O   UNL     1     108.896 126.190 134.682  0.00  0.00    +0.000 OA
ATOM      3  O   UNL     1     109.955 125.210 134.677  0.00  0.00    +0.000 OA
ATOM      4  C   UNL     1     109.283 127.650 136.337  0.00  0.00    +0.000 A 
ATOM      5  C   UNL     1     110.013 127.325 136.651  0.00  0.00    +0.000 A 
ATOM      6  C   UNL     1     108.901 127.268 135.668  0.00  0.00    +0.000 A 
ATOM      7  C   UNL     1     110.352 126.621 136.294  0.00  0.00    +0.000 A 
ATOM      8  C   UNL     1     109.987 126.253 135.653  0.00  0.00    +0.000 A 
ATOM      9  C   UNL     1     109.255 126.565 135.324  0.00  0.00    +0.000 A 
ATOM     10  C   UNL     1     110.322 125.577 135.318  0.00  0.00    +0.000 A 
ATOM     11  C   UNL     1     111.389 125.637 136.267  0.00  0.00    +0.000 A 
ATOM     12  C   UNL     1     111.022 125.270 135.625  0.00  0.00    +0.000 A 
ENDROOT
BRANCH  11  13
ATOM     13  C   UNL     1     112.090 125.329 136.573  0.00  0.00    +0.000 A 
ATOM     14  C   UNL     1     112.088 124.594 136.948  0.00  0.00    +0.000 A 
ATOM     15  C   UNL     1     112.793 125.756 136.505  0.00  0.00    +0.000 A 
ATOM     16  C   UNL     1     112.790 124.286 137.255  0.00  0.00    +0.000 A 
ATOM     17  C   UNL     1     113.494 125.448 136.811  0.00  0.00    +0.000 A 
ATOM     18  C   UNL     1     113.493 124.714 137.186  0.00  0.00    +0.000 A 
BRANCH  18  19
ATOM     19  O   UNL     1     114.194 124.405 137.493  0.00  0.00    +0.000 OA
ATOM     20  C   UNL     1     114.921 124.698 137.234  0.00  0.00    +0.000 C 
ENDBRANCH  18  19
ENDBRANCH  11  13
BRANCH   4  21
ATOM     21  O   UNL     1     108.951 128.326 136.673  0.00  0.00    +0.000 OA
BRANCH  21  30
ATOM     22  O   UNL     1     109.941 129.316 136.390  0.00  0.00    +0.000 OA
ATOM     23  O   UNL     1     108.183 130.823 135.516  0.00  0.00    +0.000 OA
ATOM     24  O   UNL     1     109.759 131.312 135.524  0.00  0.00    +0.000 OA
ATOM     25  O   UNL     1     107.779 129.330 136.091  0.00  0.00    +0.000 OA
ATOM     26  C   UNL     1     108.769 130.321 135.807  0.00  0.00    +0.000 C 
ATOM     27  C   UNL     1     109.557 130.566 135.811  0.00  0.00    +0.000 C 
ATOM     28  C   UNL     1     108.567 129.575 136.094  0.00  0.00    +0.000 C 
ATOM     29  C   UNL     1     110.143 130.064 136.102  0.00  0.00    +0.000 C 
ATOM     30  C   UNL     1     109.153 129.073 136.386  0.00  0.00    +0.000 C 
BRANCH  29  32
ATOM     31  O   UNL     1     111.393 130.222 135.429  0.00  0.00    +0.000 OA
ATOM     32  C   UNL     1     110.931 130.307 136.107  0.00  0.00    +0.000 C 
BRANCH  32  33
ATOM     33  O   UNL     1     111.257 130.637 136.790  0.00  0.00    +0.000 OA
ATOM     34  C   UNL     1     112.076 130.692 136.871  0.00  0.00    +0.000 C 
ENDBRANCH  32  33
ENDBRANCH  29  32
ENDBRANCH  21  30
ENDBRANCH   4  21
TORSDOF 6
ENDMDL
MODEL 8
REMARK VINA RESULT:      -8.7      8.516      9.781
REMARK  Name = 44257887
REMARK  6 active torsions:
REMARK  status: ('A' for Active; 'I' for Inactive)
REMARK    1  A    between atoms: O_2  and  C_16
REMARK    2  A    between atoms: O_2  and  C_18
REMARK    3  A    between atoms: O_6  and  C_17
REMARK    4  A    between atoms: O_11  and  C_33
REMARK    5  A    between atoms: C_15  and  C_17
REMARK    6  A    between atoms: C_26  and  C_28
REMARK                            x       y       z     vdW  Elec       q    Type
REMARK                         _______ _______ _______ _____ _____    ______ ____
ROOT
ATOM      1  O   UNL     1     111.955 126.525 138.106  0.00  0.00    +0.000 OA
ATOM      2  O   UNL     1     114.445 126.274 139.549  0.00  0.00    +0.000 OA
ATOM      3  O   UNL     1     114.276 125.678 138.247  0.00  0.00    +0.000 OA
ATOM      4  C   UNL     1     112.542 127.314 140.112  0.00  0.00    +0.000 A 
ATOM      5  C   UNL     1     112.071 127.145 139.414  0.00  0.00    +0.000 A 
ATOM      6  C   UNL     1     113.349 127.020 140.161  0.00  0.00    +0.000 A 
ATOM      7  C   UNL     1     112.412 126.684 138.774  0.00  0.00    +0.000 A 
ATOM      8  C   UNL     1     113.186 126.402 138.820  0.00  0.00    +0.000 A 
ATOM      9  C   UNL     1     113.672 126.561 139.511  0.00  0.00    +0.000 A 
ATOM     10  C   UNL     1     113.502 125.960 138.199  0.00  0.00    +0.000 A 
ATOM     11  C   UNL     1     112.271 126.083 137.485  0.00  0.00    +0.000 A 
ATOM     12  C   UNL     1     113.045 125.801 137.532  0.00  0.00    +0.000 A 
ENDROOT
BRANCH  11  13
ATOM     13  C   UNL     1     111.814 125.924 136.817  0.00  0.00    +0.000 A 
ATOM     14  C   UNL     1     111.438 125.194 136.739  0.00  0.00    +0.000 A 
ATOM     15  C   UNL     1     111.733 126.495 136.227  0.00  0.00    +0.000 A 
ATOM     16  C   UNL     1     110.980 125.035 136.070  0.00  0.00    +0.000 A 
ATOM     17  C   UNL     1     111.276 126.337 135.559  0.00  0.00    +0.000 A 
ATOM     18  C   UNL     1     110.900 125.606 135.481  0.00  0.00    +0.000 A 
BRANCH  18  19
ATOM     19  O   UNL     1     110.443 125.447 134.812  0.00  0.00    +0.000 OA
ATOM     20  C   UNL     1     109.723 125.835 134.703  0.00  0.00    +0.000 C 
ENDBRANCH  18  19
ENDBRANCH  11  13
BRANCH   4  21
ATOM     21  O   UNL     1     112.223 127.756 140.731  0.00  0.00    +0.000 OA
BRANCH  21  30
ATOM     22  O   UNL     1     112.590 129.009 140.151  0.00  0.00    +0.000 OA
ATOM     23  O   UNL     1     112.698 130.022 142.407  0.00  0.00    +0.000 OA
ATOM     24  O   UNL     1     113.029 130.938 141.074  0.00  0.00    +0.000 OA
ATOM     25  O   UNL     1     112.295 128.431 142.235  0.00  0.00    +0.000 OA
ATOM     26  C   UNL     1     112.662 129.684 141.655  0.00  0.00    +0.000 C 
ATOM     27  C   UNL     1     112.828 130.143 140.989  0.00  0.00    +0.000 C 
ATOM     28  C   UNL     1     112.461 128.889 141.569  0.00  0.00    +0.000 C 
ATOM     29  C   UNL     1     112.792 129.805 140.237  0.00  0.00    +0.000 C 
ATOM     30  C   UNL     1     112.425 128.552 140.817  0.00  0.00    +0.000 C 
BRANCH  29  32
ATOM     31  O   UNL     1     112.366 130.727 139.231  0.00  0.00    +0.000 OA
ATOM     32  C   UNL     1     112.957 130.262 139.571  0.00  0.00    +0.000 C 
BRANCH  32  33
ATOM     33  O   UNL     1     113.715 130.255 139.243  0.00  0.00    +0.000 OA
ATOM     34  C   UNL     1     113.831 130.510 138.468  0.00  0.00    +0.000 C 
ENDBRANCH  32  33
ENDBRANCH  29  32
ENDBRANCH  21  30
ENDBRANCH   4  21
TORSDOF 6
ENDMDL
MODEL 9
REMARK VINA RESULT:      -8.7      4.326      6.865
REMARK  Name = 44257887
REMARK  6 active torsions:
REMARK  status: ('A' for Active; 'I' for Inactive)
REMARK    1  A    between atoms: O_2  and  C_16
REMARK    2  A    between atoms: O_2  and  C_18
REMARK    3  A    between atoms: O_6  and  C_17
REMARK    4  A    between atoms: O_11  and  C_33
REMARK    5  A    between atoms: C_15  and  C_17
REMARK    6  A    between atoms: C_26  and  C_28
REMARK                            x       y       z     vdW  Elec       q    Type
REMARK                         _______ _______ _______ _____ _____    ______ ____
ROOT
ATOM      1  O   UNL     1     106.549 125.920 145.976  0.00  0.00    +0.000 OA
ATOM      2  O   UNL     1     105.889 128.574 145.044  0.00  0.00    +0.000 OA
ATOM      3  O   UNL     1     106.385 128.356 146.381  0.00  0.00    +0.000 OA
ATOM      4  C   UNL     1     105.769 126.598 143.996  0.00  0.00    +0.000 A 
ATOM      5  C   UNL     1     106.053 126.082 144.621  0.00  0.00    +0.000 A 
ATOM      6  C   UNL     1     105.712 127.444 144.135  0.00  0.00    +0.000 A 
ATOM      7  C   UNL     1     106.276 126.420 145.379  0.00  0.00    +0.000 A 
ATOM      8  C   UNL     1     106.222 127.231 145.515  0.00  0.00    +0.000 A 
ATOM      9  C   UNL     1     105.940 127.763 144.900  0.00  0.00    +0.000 A 
ATOM     10  C   UNL     1     106.440 127.544 146.246  0.00  0.00    +0.000 A 
ATOM     11  C   UNL     1     106.766 126.231 146.709  0.00  0.00    +0.000 A 
ATOM     12  C   UNL     1     106.712 127.044 146.843  0.00  0.00    +0.000 A 
ENDROOT
BRANCH  11  13
ATOM     13  C   UNL     1     107.039 125.732 147.306  0.00  0.00    +0.000 A 
ATOM     14  C   UNL     1     106.508 125.416 147.853  0.00  0.00    +0.000 A 
ATOM     15  C   UNL     1     107.841 125.548 147.356  0.00  0.00    +0.000 A 
ATOM     16  C   UNL     1     106.780 124.916 148.451  0.00  0.00    +0.000 A 
ATOM     17  C   UNL     1     108.114 125.048 147.953  0.00  0.00    +0.000 A 
ATOM     18  C   UNL     1     107.583 124.733 148.500  0.00  0.00    +0.000 A 
BRANCH  18  19
ATOM     19  O   UNL     1     107.856 124.233 149.098  0.00  0.00    +0.000 OA
ATOM     20  C   UNL     1     107.319 123.874 149.612  0.00  0.00    +0.000 C 
ENDBRANCH  18  19
ENDBRANCH  11  13
BRANCH   4  21
ATOM     21  O   UNL     1     105.552 126.282 143.265  0.00  0.00    +0.000 OA
BRANCH  21  30
ATOM     22  O   UNL     1     106.747 126.610 142.552  0.00  0.00    +0.000 OA
ATOM     23  O   UNL     1     106.643 124.433 141.379  0.00  0.00    +0.000 OA
ATOM     24  O   UNL     1     107.872 125.486 141.057  0.00  0.00    +0.000 OA
ATOM     25  O   UNL     1     105.483 124.831 142.482  0.00  0.00    +0.000 OA
ATOM     26  C   UNL     1     106.678 125.159 141.770  0.00  0.00    +0.000 C 
ATOM     27  C   UNL     1     107.293 125.685 141.608  0.00  0.00    +0.000 C 
ATOM     28  C   UNL     1     106.098 125.357 142.321  0.00  0.00    +0.000 C 
ATOM     29  C   UNL     1     107.327 126.411 141.999  0.00  0.00    +0.000 C 
ATOM     30  C   UNL     1     106.133 126.083 142.712  0.00  0.00    +0.000 C 
BRANCH  29  32
ATOM     31  O   UNL     1     108.695 126.799 142.144  0.00  0.00    +0.000 OA
ATOM     32  C   UNL     1     107.941 126.937 141.839  0.00  0.00    +0.000 C 
BRANCH  32  33
ATOM     33  O   UNL     1     107.801 127.604 141.373  0.00  0.00    +0.000 OA
ATOM     34  C   UNL     1     108.352 128.218 141.355  0.00  0.00    +0.000 C 
ENDBRANCH  32  33
ENDBRANCH  29  32
ENDBRANCH  21  30
ENDBRANCH   4  21
TORSDOF 6
ENDMDL
MODEL 10
REMARK VINA RESULT:      -8.7      8.370     10.201
REMARK  Name = 44257887
REMARK  6 active torsions:
REMARK  status: ('A' for Active; 'I' for Inactive)
REMARK    1  A    between atoms: O_2  and  C_16
REMARK    2  A    between atoms: O_2  and  C_18
REMARK    3  A    between atoms: O_6  and  C_17
REMARK    4  A    between atoms: O_11  and  C_33
REMARK    5  A    between atoms: C_15  and  C_17
REMARK    6  A    between atoms: C_26  and  C_28
REMARK                            x       y       z     vdW  Elec       q    Type
REMARK                         _______ _______ _______ _____ _____    ______ ____
ROOT
ATOM      1  O   UNL     1     113.147 128.126 138.637  0.00  0.00    +0.000 OA
ATOM      2  O   UNL     1     112.906 128.973 135.885  0.00  0.00    +0.000 OA
ATOM      3  O   UNL     1     112.636 129.884 136.971  0.00  0.00    +0.000 OA
ATOM      4  C   UNL     1     113.486 126.987 136.745  0.00  0.00    +0.000 A 
ATOM      5  C   UNL     1     113.431 127.169 137.582  0.00  0.00    +0.000 A 
ATOM      6  C   UNL     1     113.309 127.597 136.166  0.00  0.00    +0.000 A 
ATOM      7  C   UNL     1     113.199 127.958 137.830  0.00  0.00    +0.000 A 
ATOM      8  C   UNL     1     113.028 128.544 137.276  0.00  0.00    +0.000 A 
ATOM      9  C   UNL     1     113.079 128.380 136.433  0.00  0.00    +0.000 A 
ATOM     10  C   UNL     1     112.806 129.298 137.527  0.00  0.00    +0.000 A 
ATOM     11  C   UNL     1     112.925 128.880 138.888  0.00  0.00    +0.000 A 
ATOM     12  C   UNL     1     112.755 129.465 138.332  0.00  0.00    +0.000 A 
ENDROOT
BRANCH  11  13
ATOM     13  C   UNL     1     112.873 129.048 139.694  0.00  0.00    +0.000 A 
ATOM     14  C   UNL     1     112.158 128.945 140.092  0.00  0.00    +0.000 A 
ATOM     15  C   UNL     1     113.537 129.320 140.102  0.00  0.00    +0.000 A 
ATOM     16  C   UNL     1     112.107 129.113 140.898  0.00  0.00    +0.000 A 
ATOM     17  C   UNL     1     113.486 129.489 140.907  0.00  0.00    +0.000 A 
ATOM     18  C   UNL     1     112.771 129.385 141.306  0.00  0.00    +0.000 A 
BRANCH  18  19
ATOM     19  O   UNL     1     112.719 129.554 142.112  0.00  0.00    +0.000 OA
ATOM     20  C   UNL     1     112.333 130.237 142.366  0.00  0.00    +0.000 C 
ENDBRANCH  18  19
ENDBRANCH  11  13
BRANCH   4  21
ATOM     21  O   UNL     1     113.708 126.232 136.497  0.00  0.00    +0.000 OA
BRANCH  21  30
ATOM     22  O   UNL     1     112.380 125.752 136.282  0.00  0.00    +0.000 OA
ATOM     23  O   UNL     1     113.078 123.493 137.013  0.00  0.00    +0.000 OA
ATOM     24  O   UNL     1     111.517 123.766 136.554  0.00  0.00    +0.000 OA
ATOM     25  O   UNL     1     114.174 124.726 136.985  0.00  0.00    +0.000 OA
ATOM     26  C   UNL     1     112.845 124.246 136.769  0.00  0.00    +0.000 C 
ATOM     27  C   UNL     1     112.064 124.382 136.540  0.00  0.00    +0.000 C 
ATOM     28  C   UNL     1     113.393 124.862 136.755  0.00  0.00    +0.000 C 
ATOM     29  C   UNL     1     111.832 125.135 136.296  0.00  0.00    +0.000 C 
ATOM     30  C   UNL     1     113.160 125.615 136.511  0.00  0.00    +0.000 C 
BRANCH  29  32
ATOM     31  O   UNL     1     110.468 125.391 136.638  0.00  0.00    +0.000 OA
ATOM     32  C   UNL     1     111.051 125.272 136.067  0.00  0.00    +0.000 C 
BRANCH  32  33
ATOM     33  O   UNL     1     110.854 125.289 135.265  0.00  0.00    +0.000 OA
ATOM     34  C   UNL     1     110.161 125.663 135.019  0.00  0.00    +0.000 C 
ENDBRANCH  32  33
ENDBRANCH  29  32
ENDBRANCH  21  30
ENDBRANCH   4  21
TORSDOF 6
ENDMDL
