MODEL 1
REMARK VINA RESULT:      -9.0      0.000      0.000
REMARK  Name = 14841120
REMARK  5 active torsions:
REMARK  status: ('A' for Active; 'I' for Inactive)
REMARK    1  A    between atoms: O_2  and  C_14
REMARK    2  A    between atoms: O_2  and  C_16
REMARK    3  A    between atoms: O_9  and  C_25
REMARK    4  A    between atoms: C_13  and  C_15
REMARK    5  A    between atoms: C_18  and  C_23
REMARK                            x       y       z     vdW  Elec       q    Type
REMARK                         _______ _______ _______ _____ _____    ______ ____
ROOT
ATOM      1  O   UNL     1     113.868 127.215 136.301  0.00  0.00    +0.000 OA
ATOM      2  O   UNL     1     112.422 128.278 138.005  0.00  0.00    +0.000 OA
ATOM      3  C   UNL     1     113.094 129.227 136.826  0.00  0.00    +0.000 A 
ATOM      4  C   UNL     1     113.246 128.382 136.843  0.00  0.00    +0.000 A 
ATOM      5  C   UNL     1     113.525 126.756 136.895  0.00  0.00    +0.000 C 
ATOM      6  C   UNL     1     113.043 127.110 137.463  0.00  0.00    +0.000 C 
ATOM      7  C   UNL     1     113.728 128.028 136.275  0.00  0.00    +0.000 A 
ATOM      8  C   UNL     1     112.904 127.924 137.437  0.00  0.00    +0.000 C 
ATOM      9  C   UNL     1     113.447 129.710 136.210  0.00  0.00    +0.000 A 
ATOM     10  C   UNL     1     114.091 128.493 135.650  0.00  0.00    +0.000 A 
ATOM     11  C   UNL     1     113.950 129.340 135.618  0.00  0.00    +0.000 A 
ENDROOT
BRANCH   5  12
ATOM     12  C   UNL     1     113.665 125.944 136.921  0.00  0.00    +0.000 A 
ATOM     13  C   UNL     1     114.330 125.652 137.313  0.00  0.00    +0.000 A 
ATOM     14  C   UNL     1     113.139 125.423 136.557  0.00  0.00    +0.000 A 
ATOM     15  C   UNL     1     114.470 124.839 137.339  0.00  0.00    +0.000 A 
ATOM     16  C   UNL     1     113.278 124.610 136.583  0.00  0.00    +0.000 A 
ATOM     17  C   UNL     1     113.944 124.318 136.974  0.00  0.00    +0.000 A 
ENDBRANCH   5  12
BRANCH  11  18
ATOM     18  O   UNL     1     114.293 129.796 135.022  0.00  0.00    +0.000 OA
ATOM     19  C   UNL     1     115.016 130.171 135.155  0.00  0.00    +0.000 C 
ENDBRANCH  11  18
BRANCH   3  20
ATOM     20  O   UNL     1     112.611 129.573 137.398  0.00  0.00    +0.000 OA
BRANCH  20  29
ATOM     21  O   UNL     1     111.473 129.922 136.606  0.00  0.00    +0.000 OA
ATOM     22  O   UNL     1     111.434 132.165 137.649  0.00  0.00    +0.000 OA
ATOM     23  O   UNL     1     110.310 131.766 136.509  0.00  0.00    +0.000 OA
ATOM     24  O   UNL     1     112.584 131.069 138.094  0.00  0.00    +0.000 OA
ATOM     25  C   UNL     1     111.447 131.418 137.302  0.00  0.00    +0.000 C 
ATOM     26  C   UNL     1     110.886 131.218 136.732  0.00  0.00    +0.000 C 
ATOM     27  C   UNL     1     112.023 130.870 137.524  0.00  0.00    +0.000 C 
ATOM     28  C   UNL     1     110.899 130.470 136.384  0.00  0.00    +0.000 C 
ATOM     29  C   UNL     1     112.036 130.122 137.176  0.00  0.00    +0.000 C 
BRANCH  28  31
ATOM     30  O   UNL     1     110.003 129.516 135.811  0.00  0.00    +0.000 OA
ATOM     31  C   UNL     1     110.336 130.270 135.814  0.00  0.00    +0.000 C 
ENDBRANCH  28  31
ENDBRANCH  20  29
ENDBRANCH   3  20
TORSDOF 5
ENDMDL
MODEL 2
REMARK VINA RESULT:      -8.9      1.458      2.194
REMARK  Name = 14841120
REMARK  5 active torsions:
REMARK  status: ('A' for Active; 'I' for Inactive)
REMARK    1  A    between atoms: O_2  and  C_14
REMARK    2  A    between atoms: O_2  and  C_16
REMARK    3  A    between atoms: O_9  and  C_25
REMARK    4  A    between atoms: C_13  and  C_15
REMARK    5  A    between atoms: C_18  and  C_23
REMARK                            x       y       z     vdW  Elec       q    Type
REMARK                         _______ _______ _______ _____ _____    ______ ____
ROOT
ATOM      1  O   UNL     1     113.528 127.508 136.640  0.00  0.00    +0.000 OA
ATOM      2  O   UNL     1     111.216 126.996 135.923  0.00  0.00    +0.000 OA
ATOM      3  C   UNL     1     111.719 128.574 135.924  0.00  0.00    +0.000 A 
ATOM      4  C   UNL     1     112.253 127.947 136.169  0.00  0.00    +0.000 A 
ATOM      5  C   UNL     1     113.262 126.727 136.634  0.00  0.00    +0.000 C 
ATOM      6  C   UNL     1     112.491 126.556 136.395  0.00  0.00    +0.000 C 
ATOM      7  C   UNL     1     113.024 128.118 136.408  0.00  0.00    +0.000 A 
ATOM      8  C   UNL     1     111.986 127.167 136.162  0.00  0.00    +0.000 C 
ATOM      9  C   UNL     1     111.991 129.389 135.929  0.00  0.00    +0.000 A 
ATOM     10  C   UNL     1     113.315 128.926 136.419  0.00  0.00    +0.000 A 
ATOM     11  C   UNL     1     112.795 129.566 136.178  0.00  0.00    +0.000 A 
ENDROOT
BRANCH   5  12
ATOM     12  C   UNL     1     113.766 126.117 136.866  0.00  0.00    +0.000 A 
ATOM     13  C   UNL     1     114.247 125.744 136.309  0.00  0.00    +0.000 A 
ATOM     14  C   UNL     1     113.789 125.879 137.656  0.00  0.00    +0.000 A 
ATOM     15  C   UNL     1     114.751 125.134 136.541  0.00  0.00    +0.000 A 
ATOM     16  C   UNL     1     114.293 125.269 137.888  0.00  0.00    +0.000 A 
ATOM     17  C   UNL     1     114.774 124.896 137.331  0.00  0.00    +0.000 A 
ENDBRANCH   5  12
BRANCH  11  18
ATOM     18  O   UNL     1     113.064 130.346 136.185  0.00  0.00    +0.000 OA
ATOM     19  C   UNL     1     113.192 130.732 136.903  0.00  0.00    +0.000 C 
ENDBRANCH  11  18
BRANCH   3  20
ATOM     20  O   UNL     1     110.950 128.395 135.687  0.00  0.00    +0.000 OA
BRANCH  20  29
ATOM     21  O   UNL     1     110.194 128.938 136.771  0.00  0.00    +0.000 OA
ATOM     22  O   UNL     1     108.664 130.027 135.159  0.00  0.00    +0.000 OA
ATOM     23  O   UNL     1     108.418 130.207 136.781  0.00  0.00    +0.000 OA
ATOM     24  O   UNL     1     109.929 129.120 134.612  0.00  0.00    +0.000 OA
ATOM     25  C   UNL     1     109.174 129.664 135.697  0.00  0.00    +0.000 C 
ATOM     26  C   UNL     1     109.051 129.754 136.507  0.00  0.00    +0.000 C 
ATOM     27  C   UNL     1     109.807 129.211 135.422  0.00  0.00    +0.000 C 
ATOM     28  C   UNL     1     109.561 129.391 137.044  0.00  0.00    +0.000 C 
ATOM     29  C   UNL     1     110.317 128.848 135.960  0.00  0.00    +0.000 C 
BRANCH  28  31
ATOM     30  O   UNL     1     109.446 128.821 138.349  0.00  0.00    +0.000 OA
ATOM     31  C   UNL     1     109.439 129.481 137.856  0.00  0.00    +0.000 C 
ENDBRANCH  28  31
ENDBRANCH  20  29
ENDBRANCH   3  20
TORSDOF 5
ENDMDL
MODEL 3
REMARK VINA RESULT:      -8.8      2.620      3.654
REMARK  Name = 14841120
REMARK  5 active torsions:
REMARK  status: ('A' for Active; 'I' for Inactive)
REMARK    1  A    between atoms: O_2  and  C_14
REMARK    2  A    between atoms: O_2  and  C_16
REMARK    3  A    between atoms: O_9  and  C_25
REMARK    4  A    between atoms: C_13  and  C_15
REMARK    5  A    between atoms: C_18  and  C_23
REMARK                            x       y       z     vdW  Elec       q    Type
REMARK                         _______ _______ _______ _____ _____    ______ ____
ROOT
ATOM      1  O   UNL     1     113.158 127.060 137.856  0.00  0.00    +0.000 OA
ATOM      2  O   UNL     1     113.513 127.202 140.301  0.00  0.00    +0.000 OA
ATOM      3  C   UNL     1     112.880 128.513 139.511  0.00  0.00    +0.000 A 
ATOM      4  C   UNL     1     113.080 127.798 139.077  0.00  0.00    +0.000 A 
ATOM      5  C   UNL     1     113.472 126.417 138.265  0.00  0.00    +0.000 C 
ATOM      6  C   UNL     1     113.591 126.464 139.080  0.00  0.00    +0.000 C 
ATOM      7  C   UNL     1     112.961 127.751 138.262  0.00  0.00    +0.000 A 
ATOM      8  C   UNL     1     113.395 127.155 139.486  0.00  0.00    +0.000 C 
ATOM      9  C   UNL     1     112.552 129.186 139.090  0.00  0.00    +0.000 A 
ATOM     10  C   UNL     1     112.635 128.414 137.824  0.00  0.00    +0.000 A 
ATOM     11  C   UNL     1     112.428 129.136 138.241  0.00  0.00    +0.000 A 
ENDROOT
BRANCH   5  12
ATOM     12  C   UNL     1     113.668 125.726 137.859  0.00  0.00    +0.000 A 
ATOM     13  C   UNL     1     114.460 125.543 137.714  0.00  0.00    +0.000 A 
ATOM     14  C   UNL     1     113.073 125.217 137.598  0.00  0.00    +0.000 A 
ATOM     15  C   UNL     1     114.656 124.852 137.309  0.00  0.00    +0.000 A 
ATOM     16  C   UNL     1     113.269 124.527 137.192  0.00  0.00    +0.000 A 
ATOM     17  C   UNL     1     114.061 124.344 137.048  0.00  0.00    +0.000 A 
ENDBRANCH   5  12
BRANCH  11  18
ATOM     18  O   UNL     1     112.114 129.778 137.829  0.00  0.00    +0.000 OA
ATOM     19  C   UNL     1     112.593 130.217 137.321  0.00  0.00    +0.000 C 
ENDBRANCH  11  18
BRANCH   3  20
ATOM     20  O   UNL     1     113.002 128.551 140.326  0.00  0.00    +0.000 OA
BRANCH  20  29
ATOM     21  O   UNL     1     114.003 129.567 140.416  0.00  0.00    +0.000 OA
ATOM     22  O   UNL     1     112.703 130.688 142.200  0.00  0.00    +0.000 OA
ATOM     23  O   UNL     1     114.137 131.331 141.695  0.00  0.00    +0.000 OA
ATOM     24  O   UNL     1     112.136 129.299 141.515  0.00  0.00    +0.000 OA
ATOM     25  C   UNL     1     113.137 130.315 141.605  0.00  0.00    +0.000 C 
ATOM     26  C   UNL     1     113.853 130.636 141.353  0.00  0.00    +0.000 C 
ATOM     27  C   UNL     1     112.852 129.620 141.263  0.00  0.00    +0.000 C 
ATOM     28  C   UNL     1     114.286 130.262 140.759  0.00  0.00    +0.000 C 
ATOM     29  C   UNL     1     113.285 129.246 140.668  0.00  0.00    +0.000 C 
BRANCH  28  31
ATOM     30  O   UNL     1     115.660 130.095 140.404  0.00  0.00    +0.000 OA
ATOM     31  C   UNL     1     115.003 130.583 140.506  0.00  0.00    +0.000 C 
ENDBRANCH  28  31
ENDBRANCH  20  29
ENDBRANCH   3  20
TORSDOF 5
ENDMDL
MODEL 4
REMARK VINA RESULT:      -8.8      3.267      4.469
REMARK  Name = 14841120
REMARK  5 active torsions:
REMARK  status: ('A' for Active; 'I' for Inactive)
REMARK    1  A    between atoms: O_2  and  C_14
REMARK    2  A    between atoms: O_2  and  C_16
REMARK    3  A    between atoms: O_9  and  C_25
REMARK    4  A    between atoms: C_13  and  C_15
REMARK    5  A    between atoms: C_18  and  C_23
REMARK                            x       y       z     vdW  Elec       q    Type
REMARK                         _______ _______ _______ _____ _____    ______ ____
ROOT
ATOM      1  O   UNL     1     113.676 126.430 138.783  0.00  0.00    +0.000 OA
ATOM      2  O   UNL     1     111.395 125.477 138.890  0.00  0.00    +0.000 OA
ATOM      3  C   UNL     1     111.901 126.473 140.113  0.00  0.00    +0.000 A 
ATOM      4  C   UNL     1     112.423 126.292 139.455  0.00  0.00    +0.000 A 
ATOM      5  C   UNL     1     113.409 125.932 138.181  0.00  0.00    +0.000 C 
ATOM      6  C   UNL     1     112.648 125.614 138.217  0.00  0.00    +0.000 C 
ATOM      7  C   UNL     1     113.184 126.610 139.419  0.00  0.00    +0.000 A 
ATOM      8  C   UNL     1     112.155 125.795 138.854  0.00  0.00    +0.000 C 
ATOM      9  C   UNL     1     112.174 126.990 140.741  0.00  0.00    +0.000 A 
ATOM     10  C   UNL     1     113.475 127.130 140.038  0.00  0.00    +0.000 A 
ATOM     11  C   UNL     1     112.967 127.321 140.704  0.00  0.00    +0.000 A 
ENDROOT
BRANCH   5  12
ATOM     12  C   UNL     1     113.901 125.752 137.545  0.00  0.00    +0.000 A 
ATOM     13  C   UNL     1     113.912 126.241 136.880  0.00  0.00    +0.000 A 
ATOM     14  C   UNL     1     114.383 125.082 137.572  0.00  0.00    +0.000 A 
ATOM     15  C   UNL     1     114.405 126.061 136.244  0.00  0.00    +0.000 A 
ATOM     16  C   UNL     1     114.875 124.902 136.935  0.00  0.00    +0.000 A 
ATOM     17  C   UNL     1     114.886 125.391 136.271  0.00  0.00    +0.000 A 
ENDBRANCH   5  12
BRANCH  11  18
ATOM     18  O   UNL     1     113.237 127.819 141.303  0.00  0.00    +0.000 OA
ATOM     19  C   UNL     1     113.350 128.623 141.153  0.00  0.00    +0.000 C 
ENDBRANCH  11  18
BRANCH   3  20
ATOM     20  O   UNL     1     111.142 126.151 140.141  0.00  0.00    +0.000 OA
BRANCH  20  29
ATOM     21  O   UNL     1     110.335 127.316 139.959  0.00  0.00    +0.000 OA
ATOM     22  O   UNL     1     108.920 126.634 141.872  0.00  0.00    +0.000 OA
ATOM     23  O   UNL     1     108.585 128.027 141.053  0.00  0.00    +0.000 OA
ATOM     24  O   UNL     1     110.199 125.696 141.416  0.00  0.00    +0.000 OA
ATOM     25  C   UNL     1     109.392 126.862 141.235  0.00  0.00    +0.000 C 
ATOM     26  C   UNL     1     109.224 127.558 140.826  0.00  0.00    +0.000 C 
ATOM     27  C   UNL     1     110.031 126.392 141.007  0.00  0.00    +0.000 C 
ATOM     28  C   UNL     1     109.696 127.785 140.188  0.00  0.00    +0.000 C 
ATOM     29  C   UNL     1     110.503 126.620 140.369  0.00  0.00    +0.000 C 
BRANCH  28  31
ATOM     30  O   UNL     1     109.478 128.473 138.955  0.00  0.00    +0.000 OA
ATOM     31  C   UNL     1     109.528 128.482 139.778  0.00  0.00    +0.000 C 
ENDBRANCH  28  31
ENDBRANCH  20  29
ENDBRANCH   3  20
TORSDOF 5
ENDMDL
MODEL 5
REMARK VINA RESULT:      -8.7      2.196      3.013
REMARK  Name = 14841120
REMARK  5 active torsions:
REMARK  status: ('A' for Active; 'I' for Inactive)
REMARK    1  A    between atoms: O_2  and  C_14
REMARK    2  A    between atoms: O_2  and  C_16
REMARK    3  A    between atoms: O_9  and  C_25
REMARK    4  A    between atoms: C_13  and  C_15
REMARK    5  A    between atoms: C_18  and  C_23
REMARK                            x       y       z     vdW  Elec       q    Type
REMARK                         _______ _______ _______ _____ _____    ______ ____
ROOT
ATOM      1  O   UNL     1     112.761 126.613 137.584  0.00  0.00    +0.000 OA
ATOM      2  O   UNL     1     111.034 126.374 135.830  0.00  0.00    +0.000 OA
ATOM      3  C   UNL     1     110.783 127.464 137.051  0.00  0.00    +0.000 A 
ATOM      4  C   UNL     1     111.501 126.992 137.030  0.00  0.00    +0.000 A 
ATOM      5  C   UNL     1     112.871 126.074 136.969  0.00  0.00    +0.000 C 
ATOM      6  C   UNL     1     112.295 125.994 136.384  0.00  0.00    +0.000 C 
ATOM      7  C   UNL     1     112.077 127.071 137.615  0.00  0.00    +0.000 A 
ATOM      8  C   UNL     1     111.609 126.454 136.414  0.00  0.00    +0.000 C 
ATOM      9  C   UNL     1     110.664 128.026 137.689  0.00  0.00    +0.000 A 
ATOM     10  C   UNL     1     111.976 127.628 138.262  0.00  0.00    +0.000 A 
ATOM     11  C   UNL     1     111.265 128.109 138.299  0.00  0.00    +0.000 A 
ENDROOT
BRANCH   5  12
ATOM     12  C   UNL     1     113.556 125.616 136.938  0.00  0.00    +0.000 A 
ATOM     13  C   UNL     1     113.582 124.887 137.325  0.00  0.00    +0.000 A 
ATOM     14  C   UNL     1     114.214 125.885 136.521  0.00  0.00    +0.000 A 
ATOM     15  C   UNL     1     114.267 124.428 137.294  0.00  0.00    +0.000 A 
ATOM     16  C   UNL     1     114.899 125.426 136.490  0.00  0.00    +0.000 A 
ATOM     17  C   UNL     1     114.926 124.698 136.877  0.00  0.00    +0.000 A 
ENDBRANCH   5  12
BRANCH  11  18
ATOM     18  O   UNL     1     111.158 128.646 138.916  0.00  0.00    +0.000 OA
ATOM     19  C   UNL     1     111.594 129.346 138.933  0.00  0.00    +0.000 C 
ENDBRANCH  11  18
BRANCH   3  20
ATOM     20  O   UNL     1     110.212 127.378 136.462  0.00  0.00    +0.000 OA
BRANCH  20  29
ATOM     21  O   UNL     1     110.349 128.614 135.759  0.00  0.00    +0.000 OA
ATOM     22  O   UNL     1     107.892 128.909 135.798  0.00  0.00    +0.000 OA
ATOM     23  O   UNL     1     108.848 130.047 135.082  0.00  0.00    +0.000 OA
ATOM     24  O   UNL     1     108.574 127.574 136.488  0.00  0.00    +0.000 OA
ATOM     25  C   UNL     1     108.711 128.811 135.785  0.00  0.00    +0.000 C 
ATOM     26  C   UNL     1     109.189 129.379 135.427  0.00  0.00    +0.000 C 
ATOM     27  C   UNL     1     109.052 128.143 136.130  0.00  0.00    +0.000 C 
ATOM     28  C   UNL     1     110.008 129.281 135.414  0.00  0.00    +0.000 C 
ATOM     29  C   UNL     1     109.871 128.045 136.117  0.00  0.00    +0.000 C 
BRANCH  28  31
ATOM     30  O   UNL     1     111.185 129.624 134.681  0.00  0.00    +0.000 OA
ATOM     31  C   UNL     1     110.486 129.851 135.056  0.00  0.00    +0.000 C 
ENDBRANCH  28  31
ENDBRANCH  20  29
ENDBRANCH   3  20
TORSDOF 5
ENDMDL
MODEL 6
REMARK VINA RESULT:      -8.6      2.086      4.681
REMARK  Name = 14841120
REMARK  5 active torsions:
REMARK  status: ('A' for Active; 'I' for Inactive)
REMARK    1  A    between atoms: O_2  and  C_14
REMARK    2  A    between atoms: O_2  and  C_16
REMARK    3  A    between atoms: O_9  and  C_25
REMARK    4  A    between atoms: C_13  and  C_15
REMARK    5  A    between atoms: C_18  and  C_23
REMARK                            x       y       z     vdW  Elec       q    Type
REMARK                         _______ _______ _______ _____ _____    ______ ____
ROOT
ATOM      1  O   UNL     1     113.101 129.197 135.442  0.00  0.00    +0.000 OA
ATOM      2  O   UNL     1     113.951 127.088 136.417  0.00  0.00    +0.000 OA
ATOM      3  C   UNL     1     112.336 127.212 136.072  0.00  0.00    +0.000 A 
ATOM      4  C   UNL     1     112.866 127.869 135.914  0.00  0.00    +0.000 A 
ATOM      5  C   UNL     1     113.903 129.119 135.619  0.00  0.00    +0.000 C 
ATOM      6  C   UNL     1     114.187 128.416 135.944  0.00  0.00    +0.000 C 
ATOM      7  C   UNL     1     112.583 128.573 135.589  0.00  0.00    +0.000 A 
ATOM      8  C   UNL     1     113.668 127.790 136.092  0.00  0.00    +0.000 C 
ATOM      9  C   UNL     1     111.500 127.288 135.889  0.00  0.00    +0.000 A 
ATOM     10  C   UNL     1     111.750 128.667 135.399  0.00  0.00    +0.000 A 
ATOM     11  C   UNL     1     111.205 128.021 135.550  0.00  0.00    +0.000 A 
ENDROOT
BRANCH   5  12
ATOM     12  C   UNL     1     114.421 129.743 135.472  0.00  0.00    +0.000 A 
ATOM     13  C   UNL     1     114.522 130.338 136.036  0.00  0.00    +0.000 A 
ATOM     14  C   UNL     1     114.840 129.774 134.762  0.00  0.00    +0.000 A 
ATOM     15  C   UNL     1     115.040 130.962 135.888  0.00  0.00    +0.000 A 
ATOM     16  C   UNL     1     115.358 130.398 134.615  0.00  0.00    +0.000 A 
ATOM     17  C   UNL     1     115.458 130.993 135.178  0.00  0.00    +0.000 A 
ENDBRANCH   5  12
BRANCH  11  18
ATOM     18  O   UNL     1     110.404 128.102 135.372  0.00  0.00    +0.000 OA
ATOM     19  C   UNL     1     110.123 127.882 134.628  0.00  0.00    +0.000 C 
ENDBRANCH  11  18
BRANCH   3  20
ATOM     20  O   UNL     1     112.628 126.512 136.397  0.00  0.00    +0.000 OA
BRANCH  20  29
ATOM     21  O   UNL     1     112.033 126.557 137.696  0.00  0.00    +0.000 OA
ATOM     22  O   UNL     1     111.364 124.185 137.471  0.00  0.00    +0.000 OA
ATOM     23  O   UNL     1     110.992 125.020 138.844  0.00  0.00    +0.000 OA
ATOM     24  O   UNL     1     112.182 124.931 136.247  0.00  0.00    +0.000 OA
ATOM     25  C   UNL     1     111.587 124.975 137.546  0.00  0.00    +0.000 C 
ATOM     26  C   UNL     1     111.401 125.393 138.232  0.00  0.00    +0.000 C 
ATOM     27  C   UNL     1     111.996 125.348 136.933  0.00  0.00    +0.000 C 
ATOM     28  C   UNL     1     111.624 126.183 138.307  0.00  0.00    +0.000 C 
ATOM     29  C   UNL     1     112.219 126.139 137.008  0.00  0.00    +0.000 C 
BRANCH  28  31
ATOM     30  O   UNL     1     112.015 127.057 139.368  0.00  0.00    +0.000 OA
ATOM     31  C   UNL     1     111.438 126.602 138.994  0.00  0.00    +0.000 C 
ENDBRANCH  28  31
ENDBRANCH  20  29
ENDBRANCH   3  20
TORSDOF 5
ENDMDL
MODEL 7
REMARK VINA RESULT:      -8.5      2.159      2.923
REMARK  Name = 14841120
REMARK  5 active torsions:
REMARK  status: ('A' for Active; 'I' for Inactive)
REMARK    1  A    between atoms: O_2  and  C_14
REMARK    2  A    between atoms: O_2  and  C_16
REMARK    3  A    between atoms: O_9  and  C_25
REMARK    4  A    between atoms: C_13  and  C_15
REMARK    5  A    between atoms: C_18  and  C_23
REMARK                            x       y       z     vdW  Elec       q    Type
REMARK                         _______ _______ _______ _____ _____    ______ ____
ROOT
ATOM      1  O   UNL     1     112.339 125.675 136.442  0.00  0.00    +0.000 OA
ATOM      2  O   UNL     1     112.006 127.808 137.652  0.00  0.00    +0.000 OA
ATOM      3  C   UNL     1     110.750 127.190 136.766  0.00  0.00    +0.000 A 
ATOM      4  C   UNL     1     111.502 126.776 136.803  0.00  0.00    +0.000 A 
ATOM      5  C   UNL     1     112.954 125.996 136.888  0.00  0.00    +0.000 C 
ATOM      6  C   UNL     1     112.844 126.708 137.291  0.00  0.00    +0.000 C 
ATOM      7  C   UNL     1     111.613 126.064 136.400  0.00  0.00    +0.000 A 
ATOM      8  C   UNL     1     112.117 127.098 137.249  0.00  0.00    +0.000 C 
ATOM      9  C   UNL     1     110.106 126.860 136.304  0.00  0.00    +0.000 A 
ATOM     10  C   UNL     1     110.980 125.719 135.932  0.00  0.00    +0.000 A 
ATOM     11  C   UNL     1     110.222 126.119 135.884  0.00  0.00    +0.000 A 
ENDROOT
BRANCH   5  12
ATOM     12  C   UNL     1     113.680 125.607 136.930  0.00  0.00    +0.000 A 
ATOM     13  C   UNL     1     114.237 125.705 136.329  0.00  0.00    +0.000 A 
ATOM     14  C   UNL     1     113.850 125.120 137.574  0.00  0.00    +0.000 A 
ATOM     15  C   UNL     1     114.963 125.316 136.371  0.00  0.00    +0.000 A 
ATOM     16  C   UNL     1     114.576 124.731 137.617  0.00  0.00    +0.000 A 
ATOM     17  C   UNL     1     115.133 124.829 137.015  0.00  0.00    +0.000 A 
ENDBRANCH   5  12
BRANCH  11  18
ATOM     18  O   UNL     1     109.609 125.795 135.437  0.00  0.00    +0.000 OA
ATOM     19  C   UNL     1     109.681 125.737 134.618  0.00  0.00    +0.000 C 
ENDBRANCH  11  18
BRANCH   3  20
ATOM     20  O   UNL     1     110.648 127.901 137.173  0.00  0.00    +0.000 OA
BRANCH  20  29
ATOM     21  O   UNL     1     110.553 128.821 136.084  0.00  0.00    +0.000 OA
ATOM     22  O   UNL     1     108.580 129.873 137.145  0.00  0.00    +0.000 OA
ATOM     23  O   UNL     1     109.142 130.442 135.702  0.00  0.00    +0.000 OA
ATOM     24  O   UNL     1     109.333 128.602 137.880  0.00  0.00    +0.000 OA
ATOM     25  C   UNL     1     109.238 129.522 136.791  0.00  0.00    +0.000 C 
ATOM     26  C   UNL     1     109.518 129.807 136.070  0.00  0.00    +0.000 C 
ATOM     27  C   UNL     1     109.614 128.887 137.159  0.00  0.00    +0.000 C 
ATOM     28  C   UNL     1     110.176 129.456 135.716  0.00  0.00    +0.000 C 
ATOM     29  C   UNL     1     110.271 128.536 136.806  0.00  0.00    +0.000 C 
BRANCH  28  31
ATOM     30  O   UNL     1     111.266 129.720 134.830  0.00  0.00    +0.000 OA
ATOM     31  C   UNL     1     110.458 129.741 134.994  0.00  0.00    +0.000 C 
ENDBRANCH  28  31
ENDBRANCH  20  29
ENDBRANCH   3  20
TORSDOF 5
ENDMDL
MODEL 8
REMARK VINA RESULT:      -8.5      2.903      4.039
REMARK  Name = 14841120
REMARK  5 active torsions:
REMARK  status: ('A' for Active; 'I' for Inactive)
REMARK    1  A    between atoms: O_2  and  C_14
REMARK    2  A    between atoms: O_2  and  C_16
REMARK    3  A    between atoms: O_9  and  C_25
REMARK    4  A    between atoms: C_13  and  C_15
REMARK    5  A    between atoms: C_18  and  C_23
REMARK                            x       y       z     vdW  Elec       q    Type
REMARK                         _______ _______ _______ _____ _____    ______ ____
ROOT
ATOM      1  O   UNL     1     112.951 126.778 137.673  0.00  0.00    +0.000 OA
ATOM      2  O   UNL     1     113.738 126.682 140.017  0.00  0.00    +0.000 OA
ATOM      3  C   UNL     1     112.710 127.902 139.571  0.00  0.00    +0.000 A 
ATOM      4  C   UNL     1     112.964 127.315 138.997  0.00  0.00    +0.000 A 
ATOM      5  C   UNL     1     113.463 126.177 137.912  0.00  0.00    +0.000 C 
ATOM      6  C   UNL     1     113.726 126.145 138.693  0.00  0.00    +0.000 C 
ATOM      7  C   UNL     1     112.702 127.347 138.216  0.00  0.00    +0.000 A 
ATOM      8  C   UNL     1     113.476 126.714 139.237  0.00  0.00    +0.000 C 
ATOM      9  C   UNL     1     112.178 128.530 139.328  0.00  0.00    +0.000 A 
ATOM     10  C   UNL     1     112.168 127.968 137.954  0.00  0.00    +0.000 A 
ATOM     11  C   UNL     1     111.904 128.563 138.514  0.00  0.00    +0.000 A 
ENDROOT
BRANCH   5  12
ATOM     12  C   UNL     1     113.713 125.608 137.370  0.00  0.00    +0.000 A 
ATOM     13  C   UNL     1     113.252 124.937 137.233  0.00  0.00    +0.000 A 
ATOM     14  C   UNL     1     114.425 125.708 136.964  0.00  0.00    +0.000 A 
ATOM     15  C   UNL     1     113.502 124.368 136.691  0.00  0.00    +0.000 A 
ATOM     16  C   UNL     1     114.675 125.139 136.422  0.00  0.00    +0.000 A 
ATOM     17  C   UNL     1     114.213 124.469 136.285  0.00  0.00    +0.000 A 
ENDBRANCH   5  12
BRANCH  11  18
ATOM     18  O   UNL     1     111.393 129.163 138.272  0.00  0.00    +0.000 OA
ATOM     19  C   UNL     1     111.695 129.858 137.945  0.00  0.00    +0.000 C 
ENDBRANCH  11  18
BRANCH   3  20
ATOM     20  O   UNL     1     112.978 127.863 140.351  0.00  0.00    +0.000 OA
BRANCH  20  29
ATOM     21  O   UNL     1     111.790 127.435 141.020  0.00  0.00    +0.000 OA
ATOM     22  O   UNL     1     112.145 129.162 142.756  0.00  0.00    +0.000 OA
ATOM     23  O   UNL     1     110.839 128.158 142.846  0.00  0.00    +0.000 OA
ATOM     24  O   UNL     1     113.214 129.014 141.508  0.00  0.00    +0.000 OA
ATOM     25  C   UNL     1     112.026 128.586 142.177  0.00  0.00    +0.000 C 
ATOM     26  C   UNL     1     111.374 128.085 142.222  0.00  0.00    +0.000 C 
ATOM     27  C   UNL     1     112.562 128.513 141.553  0.00  0.00    +0.000 C 
ATOM     28  C   UNL     1     111.255 127.509 141.644  0.00  0.00    +0.000 C 
ATOM     29  C   UNL     1     112.443 127.937 140.975  0.00  0.00    +0.000 C 
BRANCH  28  31
ATOM     30  O   UNL     1     110.693 126.199 141.546  0.00  0.00    +0.000 OA
ATOM     31  C   UNL     1     110.602 127.006 141.689  0.00  0.00    +0.000 C 
ENDBRANCH  28  31
ENDBRANCH  20  29
ENDBRANCH   3  20
TORSDOF 5
ENDMDL
MODEL 9
REMARK VINA RESULT:      -8.4      1.488      2.688
REMARK  Name = 14841120
REMARK  5 active torsions:
REMARK  status: ('A' for Active; 'I' for Inactive)
REMARK    1  A    between atoms: O_2  and  C_14
REMARK    2  A    between atoms: O_2  and  C_16
REMARK    3  A    between atoms: O_9  and  C_25
REMARK    4  A    between atoms: C_13  and  C_15
REMARK    5  A    between atoms: C_18  and  C_23
REMARK                            x       y       z     vdW  Elec       q    Type
REMARK                         _______ _______ _______ _____ _____    ______ ____
ROOT
ATOM      1  O   UNL     1     111.936 126.364 136.055  0.00  0.00    +0.000 OA
ATOM      2  O   UNL     1     113.431 127.748 137.459  0.00  0.00    +0.000 OA
ATOM      3  C   UNL     1     112.500 128.494 136.310  0.00  0.00    +0.000 A 
ATOM      4  C   UNL     1     112.463 127.642 136.415  0.00  0.00    +0.000 A 
ATOM      5  C   UNL     1     112.406 126.008 136.632  0.00  0.00    +0.000 C 
ATOM      6  C   UNL     1     112.904 126.469 137.101  0.00  0.00    +0.000 C 
ATOM      7  C   UNL     1     111.964 127.181 135.946  0.00  0.00    +0.000 A 
ATOM      8  C   UNL     1     112.933 127.287 136.992  0.00  0.00    +0.000 C 
ATOM      9  C   UNL     1     112.014 128.871 135.711  0.00  0.00    +0.000 A 
ATOM     10  C   UNL     1     111.469 127.539 135.342  0.00  0.00    +0.000 A 
ATOM     11  C   UNL     1     111.494 128.389 135.223  0.00  0.00    +0.000 A 
ENDROOT
BRANCH   5  12
ATOM     12  C   UNL     1     112.377 125.191 136.741  0.00  0.00    +0.000 A 
ATOM     13  C   UNL     1     111.738 124.849 137.135  0.00  0.00    +0.000 A 
ATOM     14  C   UNL     1     112.989 124.715 136.457  0.00  0.00    +0.000 A 
ATOM     15  C   UNL     1     111.709 124.032 137.244  0.00  0.00    +0.000 A 
ATOM     16  C   UNL     1     112.960 123.898 136.566  0.00  0.00    +0.000 A 
ATOM     17  C   UNL     1     112.321 123.556 136.960  0.00  0.00    +0.000 A 
ENDBRANCH   5  12
BRANCH  11  18
ATOM     18  O   UNL     1     111.023 128.742 134.646  0.00  0.00    +0.000 OA
ATOM     19  C   UNL     1     110.235 128.922 134.809  0.00  0.00    +0.000 C 
ENDBRANCH  11  18
BRANCH   3  20
ATOM     20  O   UNL     1     113.002 128.948 136.783  0.00  0.00    +0.000 OA
BRANCH  20  29
ATOM     21  O   UNL     1     113.976 129.330 135.810  0.00  0.00    +0.000 OA
ATOM     22  O   UNL     1     113.931 131.649 136.673  0.00  0.00    +0.000 OA
ATOM     23  O   UNL     1     114.921 131.257 135.412  0.00  0.00    +0.000 OA
ATOM     24  O   UNL     1     112.972 130.494 137.359  0.00  0.00    +0.000 OA
ATOM     25  C   UNL     1     113.946 130.876 136.385  0.00  0.00    +0.000 C 
ATOM     26  C   UNL     1     114.441 130.680 135.755  0.00  0.00    +0.000 C 
ATOM     27  C   UNL     1     113.466 130.299 136.729  0.00  0.00    +0.000 C 
ATOM     28  C   UNL     1     114.456 129.907 135.468  0.00  0.00    +0.000 C 
ATOM     29  C   UNL     1     113.481 129.526 136.441  0.00  0.00    +0.000 C 
BRANCH  28  31
ATOM     30  O   UNL     1     115.215 128.935 134.746  0.00  0.00    +0.000 OA
ATOM     31  C   UNL     1     114.951 129.711 134.837  0.00  0.00    +0.000 C 
ENDBRANCH  28  31
ENDBRANCH  20  29
ENDBRANCH   3  20
TORSDOF 5
ENDMDL
MODEL 10
REMARK VINA RESULT:      -8.4      1.413      2.153
REMARK  Name = 14841120
REMARK  5 active torsions:
REMARK  status: ('A' for Active; 'I' for Inactive)
REMARK    1  A    between atoms: O_2  and  C_14
REMARK    2  A    between atoms: O_2  and  C_16
REMARK    3  A    between atoms: O_9  and  C_25
REMARK    4  A    between atoms: C_13  and  C_15
REMARK    5  A    between atoms: C_18  and  C_23
REMARK                            x       y       z     vdW  Elec       q    Type
REMARK                         _______ _______ _______ _____ _____    ______ ____
ROOT
ATOM      1  O   UNL     1     111.888 126.279 136.009  0.00  0.00    +0.000 OA
ATOM      2  O   UNL     1     113.403 127.801 137.237  0.00  0.00    +0.000 OA
ATOM      3  C   UNL     1     112.334 128.448 136.151  0.00  0.00    +0.000 A 
ATOM      4  C   UNL     1     112.360 127.599 136.283  0.00  0.00    +0.000 A 
ATOM      5  C   UNL     1     112.426 125.973 136.553  0.00  0.00    +0.000 C 
ATOM      6  C   UNL     1     112.932 126.480 136.963  0.00  0.00    +0.000 C 
ATOM      7  C   UNL     1     111.854 127.092 135.873  0.00  0.00    +0.000 A 
ATOM      8  C   UNL     1     112.898 127.294 136.828  0.00  0.00    +0.000 C 
ATOM      9  C   UNL     1     111.776 128.772 135.585  0.00  0.00    +0.000 A 
ATOM     10  C   UNL     1     111.289 127.398 135.303  0.00  0.00    +0.000 A 
ATOM     11  C   UNL     1     111.249 128.243 135.158  0.00  0.00    +0.000 A 
ENDROOT
BRANCH   5  12
ATOM     12  C   UNL     1     112.460 125.160 136.689  0.00  0.00    +0.000 A 
ATOM     13  C   UNL     1     111.813 124.770 137.021  0.00  0.00    +0.000 A 
ATOM     14  C   UNL     1     113.140 124.736 136.492  0.00  0.00    +0.000 A 
ATOM     15  C   UNL     1     111.846 123.957 137.156  0.00  0.00    +0.000 A 
ATOM     16  C   UNL     1     113.173 123.923 136.627  0.00  0.00    +0.000 A 
ATOM     17  C   UNL     1     112.526 123.533 136.960  0.00  0.00    +0.000 A 
ENDBRANCH   5  12
BRANCH  11  18
ATOM     18  O   UNL     1     110.709 128.546 134.613  0.00  0.00    +0.000 OA
ATOM     19  C   UNL     1     109.908 128.585 134.803  0.00  0.00    +0.000 C 
ENDBRANCH  11  18
BRANCH   3  20
ATOM     20  O   UNL     1     112.843 128.948 136.565  0.00  0.00    +0.000 OA
BRANCH  20  29
ATOM     21  O   UNL     1     111.936 129.610 137.449  0.00  0.00    +0.000 OA
ATOM     22  O   UNL     1     112.925 131.792 136.827  0.00  0.00    +0.000 OA
ATOM     23  O   UNL     1     111.688 131.727 137.918  0.00  0.00    +0.000 OA
ATOM     24  O   UNL     1     113.502 130.403 136.151  0.00  0.00    +0.000 OA
ATOM     25  C   UNL     1     112.595 131.065 137.034  0.00  0.00    +0.000 C 
ATOM     26  C   UNL     1     111.978 131.033 137.579  0.00  0.00    +0.000 C 
ATOM     27  C   UNL     1     112.884 130.370 136.696  0.00  0.00    +0.000 C 
ATOM     28  C   UNL     1     111.648 130.305 137.786  0.00  0.00    +0.000 C 
ATOM     29  C   UNL     1     112.555 129.643 136.903  0.00  0.00    +0.000 C 
BRANCH  28  31
ATOM     30  O   UNL     1     111.018 129.680 138.906  0.00  0.00    +0.000 OA
ATOM     31  C   UNL     1     111.029 130.272 138.332  0.00  0.00    +0.000 C 
ENDBRANCH  28  31
ENDBRANCH  20  29
ENDBRANCH   3  20
TORSDOF 5
ENDMDL
