MODEL 1
REMARK VINA RESULT:     -10.5      0.000      0.000
REMARK  Name = 44259141
REMARK  6 active torsions:
REMARK  status: ('A' for Active; 'I' for Inactive)
REMARK    1  A    between atoms: O_2  and  C_22
REMARK    2  A    between atoms: O_2  and  C_23
REMARK    3  A    between atoms: O_6  and  C_21
REMARK    4  A    between atoms: O_6  and  C_28
REMARK    5  A    between atoms: C_17  and  C_22
REMARK    6  A    between atoms: C_29  and  C_33
REMARK                            x       y       z     vdW  Elec       q    Type
REMARK                         _______ _______ _______ _____ _____    ______ ____
ROOT
ATOM      1  O   UNL     1     112.057 127.551 136.049  0.00  0.00    +0.000 OA
ENDROOT
BRANCH   1   6
ATOM      2  O   UNL     1     111.053 125.629 136.308  0.00  0.00    +0.000 OA
ATOM      3  O   UNL     1     113.338 126.578 136.417  0.00  0.00    +0.000 OA
ATOM      4  O   UNL     1     113.888 125.287 136.752  0.00  0.00    +0.000 OA
ATOM      5  O   UNL     1     112.093 122.994 136.982  0.00  0.00    +0.000 OA
ATOM      6  C   UNL     1     111.936 126.748 136.196  0.00  0.00    +0.000 A 
ATOM      7  C   UNL     1     111.174 126.432 136.160  0.00  0.00    +0.000 A 
ATOM      8  C   UNL     1     112.576 126.261 136.380  0.00  0.00    +0.000 A 
ATOM      9  C   UNL     1     112.455 125.459 136.528  0.00  0.00    +0.000 A 
ATOM     10  C   UNL     1     111.694 125.143 136.492  0.00  0.00    +0.000 A 
ATOM     11  C   UNL     1     113.130 124.962 136.718  0.00  0.00    +0.000 A 
ATOM     12  C   UNL     1     111.555 124.309 136.643  0.00  0.00    +0.000 A 
ATOM     13  C   UNL     1     113.011 124.126 136.873  0.00  0.00    +0.000 A 
ATOM     14  C   UNL     1     112.217 123.796 136.835  0.00  0.00    +0.000 A 
BRANCH   7  17
ATOM     15  O   UNL     1     108.815 127.829 136.964  0.00  0.00    +0.000 OA
ATOM     16  O   UNL     1     108.616 128.381 135.422  0.00  0.00    +0.000 OA
ATOM     17  C   UNL     1     110.535 126.919 135.976  0.00  0.00    +0.000 A 
ATOM     18  C   UNL     1     109.994 127.131 136.563  0.00  0.00    +0.000 A 
ATOM     19  C   UNL     1     110.435 127.195 135.205  0.00  0.00    +0.000 A 
ATOM     20  C   UNL     1     109.355 127.618 136.378  0.00  0.00    +0.000 A 
ATOM     21  C   UNL     1     109.796 127.682 135.021  0.00  0.00    +0.000 A 
ATOM     22  C   UNL     1     109.255 127.894 135.607  0.00  0.00    +0.000 A 
ENDBRANCH   7  17
ENDBRANCH   1   6
BRANCH   1  31
ATOM     23  O   UNL     1     112.169 127.952 137.416  0.00  0.00    +0.000 OA
ATOM     24  O   UNL     1     113.423 129.467 138.364  0.00  0.00    +0.000 OA
ATOM     25  O   UNL     1     113.882 129.623 136.786  0.00  0.00    +0.000 OA
ATOM     26  O   UNL     1     113.199 128.666 135.629  0.00  0.00    +0.000 OA
ATOM     27  C   UNL     1     112.510 128.430 137.994  0.00  0.00    +0.000 C 
ATOM     28  C   UNL     1     113.081 128.987 137.785  0.00  0.00    +0.000 C 
ATOM     29  C   UNL     1     113.311 129.066 136.996  0.00  0.00    +0.000 C 
ATOM     30  C   UNL     1     112.969 128.587 136.417  0.00  0.00    +0.000 C 
ATOM     31  C   UNL     1     112.398 128.029 136.627  0.00  0.00    +0.000 C 
BRANCH  27  32
ATOM     32  C   UNL     1     112.281 128.352 138.783  0.00  0.00    +0.000 C 
BRANCH  32  33
ATOM     33  O   UNL     1     112.151 127.604 139.104  0.00  0.00    +0.000 OA
BRANCH  33  38
ATOM     34  O   UNL     1     111.414 128.175 140.186  0.00  0.00    +0.000 OA
ATOM     35  O   UNL     1     112.177 126.152 139.887  0.00  0.00    +0.000 OA
ATOM     36  O   UNL     1     111.453 125.997 141.362  0.00  0.00    +0.000 OA
ATOM     37  O   UNL     1     110.703 127.294 142.053  0.00  0.00    +0.000 OA
ATOM     38  C   UNL     1     111.789 127.527 139.841  0.00  0.00    +0.000 C 
ATOM     39  C   UNL     1     111.802 126.801 140.233  0.00  0.00    +0.000 C 
ATOM     40  C   UNL     1     111.440 126.723 140.970  0.00  0.00    +0.000 C 
ATOM     41  C   UNL     1     111.065 127.371 141.315  0.00  0.00    +0.000 C 
ATOM     42  C   UNL     1     111.052 128.097 140.923  0.00  0.00    +0.000 C 
ENDBRANCH  33  38
ENDBRANCH  32  33
ENDBRANCH  27  32
ENDBRANCH   1  31
TORSDOF 6
ENDMDL
MODEL 2
REMARK VINA RESULT:     -10.3      1.041      2.799
REMARK  Name = 44259141
REMARK  6 active torsions:
REMARK  status: ('A' for Active; 'I' for Inactive)
REMARK    1  A    between atoms: O_2  and  C_22
REMARK    2  A    between atoms: O_2  and  C_23
REMARK    3  A    between atoms: O_6  and  C_21
REMARK    4  A    between atoms: O_6  and  C_28
REMARK    5  A    between atoms: C_17  and  C_22
REMARK    6  A    between atoms: C_29  and  C_33
REMARK                            x       y       z     vdW  Elec       q    Type
REMARK                         _______ _______ _______ _____ _____    ______ ____
ROOT
ATOM      1  O   UNL     1     111.678 127.234 135.903  0.00  0.00    +0.000 OA
ENDROOT
BRANCH   1   6
ATOM      2  O   UNL     1     113.623 126.828 136.809  0.00  0.00    +0.000 OA
ATOM      3  O   UNL     1     111.640 125.587 135.998  0.00  0.00    +0.000 OA
ATOM      4  O   UNL     1     112.246 124.328 136.357  0.00  0.00    +0.000 OA
ATOM      5  O   UNL     1     114.908 124.325 137.559  0.00  0.00    +0.000 OA
ATOM      6  C   UNL     1     112.320 126.824 136.221  0.00  0.00    +0.000 A 
ATOM      7  C   UNL     1     112.981 127.238 136.491  0.00  0.00    +0.000 A 
ATOM      8  C   UNL     1     112.302 126.001 136.269  0.00  0.00    +0.000 A 
ATOM      9  C   UNL     1     112.943 125.591 136.586  0.00  0.00    +0.000 A 
ATOM     10  C   UNL     1     113.603 126.005 136.856  0.00  0.00    +0.000 A 
ATOM     11  C   UNL     1     112.911 124.734 136.630  0.00  0.00    +0.000 A 
ATOM     12  C   UNL     1     114.278 125.589 137.189  0.00  0.00    +0.000 A 
ATOM     13  C   UNL     1     113.576 124.301 136.959  0.00  0.00    +0.000 A 
ATOM     14  C   UNL     1     114.265 124.732 137.241  0.00  0.00    +0.000 A 
BRANCH   7  17
ATOM     15  O   UNL     1     112.859 129.795 137.761  0.00  0.00    +0.000 OA
ATOM     16  O   UNL     1     113.056 130.532 136.298  0.00  0.00    +0.000 OA
ATOM     17  C   UNL     1     113.000 128.061 136.444  0.00  0.00    +0.000 A 
ATOM     18  C   UNL     1     112.920 128.517 137.127  0.00  0.00    +0.000 A 
ATOM     19  C   UNL     1     113.098 128.430 135.711  0.00  0.00    +0.000 A 
ATOM     20  C   UNL     1     112.939 129.340 137.078  0.00  0.00    +0.000 A 
ATOM     21  C   UNL     1     113.116 129.253 135.664  0.00  0.00    +0.000 A 
ATOM     22  C   UNL     1     113.037 129.708 136.347  0.00  0.00    +0.000 A 
ENDBRANCH   7  17
ENDBRANCH   1   6
BRANCH   1  31
ATOM     23  O   UNL     1     110.832 127.157 137.052  0.00  0.00    +0.000 OA
ATOM     24  O   UNL     1     108.674 126.872 137.221  0.00  0.00    +0.000 OA
ATOM     25  O   UNL     1     108.865 126.847 135.582  0.00  0.00    +0.000 OA
ATOM     26  O   UNL     1     110.367 127.028 134.923  0.00  0.00    +0.000 OA
ATOM     27  C   UNL     1     110.081 127.066 137.381  0.00  0.00    +0.000 C 
ATOM     28  C   UNL     1     109.426 126.963 136.891  0.00  0.00    +0.000 C 
ATOM     29  C   UNL     1     109.521 126.950 136.072  0.00  0.00    +0.000 C 
ATOM     30  C   UNL     1     110.272 127.041 135.742  0.00  0.00    +0.000 C 
ATOM     31  C   UNL     1     110.928 127.144 136.233  0.00  0.00    +0.000 C 
BRANCH  27  32
ATOM     32  C   UNL     1     109.985 127.079 138.201  0.00  0.00    +0.000 C 
BRANCH  32  33
ATOM     33  O   UNL     1     110.579 126.784 138.691  0.00  0.00    +0.000 OA
BRANCH  33  38
ATOM     34  O   UNL     1     110.033 127.471 139.819  0.00  0.00    +0.000 OA
ATOM     35  O   UNL     1     111.494 125.853 139.700  0.00  0.00    +0.000 OA
ATOM     36  O   UNL     1     111.405 126.074 141.333  0.00  0.00    +0.000 OA
ATOM     37  O   UNL     1     110.402 127.227 141.956  0.00  0.00    +0.000 OA
ATOM     38  C   UNL     1     110.534 126.895 139.507  0.00  0.00    +0.000 C 
ATOM     39  C   UNL     1     110.992 126.430 140.012  0.00  0.00    +0.000 C 
ATOM     40  C   UNL     1     110.948 126.540 140.828  0.00  0.00    +0.000 C 
ATOM     41  C   UNL     1     110.446 127.116 141.139  0.00  0.00    +0.000 C 
ATOM     42  C   UNL     1     109.989 127.582 140.634  0.00  0.00    +0.000 C 
ENDBRANCH  33  38
ENDBRANCH  32  33
ENDBRANCH  27  32
ENDBRANCH   1  31
TORSDOF 6
ENDMDL
MODEL 3
REMARK VINA RESULT:     -10.2      1.158      3.013
REMARK  Name = 44259141
REMARK  6 active torsions:
REMARK  status: ('A' for Active; 'I' for Inactive)
REMARK    1  A    between atoms: O_2  and  C_22
REMARK    2  A    between atoms: O_2  and  C_23
REMARK    3  A    between atoms: O_6  and  C_21
REMARK    4  A    between atoms: O_6  and  C_28
REMARK    5  A    between atoms: C_17  and  C_22
REMARK    6  A    between atoms: C_29  and  C_33
REMARK                            x       y       z     vdW  Elec       q    Type
REMARK                         _______ _______ _______ _____ _____    ______ ____
ROOT
ATOM      1  O   UNL     1     113.025 127.363 136.588  0.00  0.00    +0.000 OA
ENDROOT
BRANCH   1   6
ATOM      2  O   UNL     1     111.872 125.623 135.946  0.00  0.00    +0.000 OA
ATOM      3  O   UNL     1     111.700 128.092 135.927  0.00  0.00    +0.000 OA
ATOM      4  O   UNL     1     110.420 128.027 135.266  0.00  0.00    +0.000 OA
ATOM      5  O   UNL     1     109.292 125.413 134.612  0.00  0.00    +0.000 OA
ATOM      6  C   UNL     1     112.420 126.905 136.264  0.00  0.00    +0.000 A 
ATOM      7  C   UNL     1     112.477 126.081 136.270  0.00  0.00    +0.000 A 
ATOM      8  C   UNL     1     111.758 127.269 135.933  0.00  0.00    +0.000 A 
ATOM      9  C   UNL     1     111.153 126.811 135.609  0.00  0.00    +0.000 A 
ATOM     10  C   UNL     1     111.210 125.988 135.616  0.00  0.00    +0.000 A 
ATOM     11  C   UNL     1     110.469 127.203 135.268  0.00  0.00    +0.000 A 
ATOM     12  C   UNL     1     110.587 125.501 135.281  0.00  0.00    +0.000 A 
ATOM     13  C   UNL     1     109.835 126.732 134.929  0.00  0.00    +0.000 A 
ATOM     14  C   UNL     1     109.895 125.874 134.935  0.00  0.00    +0.000 A 
BRANCH   7  17
ATOM     15  O   UNL     1     115.238 125.358 136.122  0.00  0.00    +0.000 OA
ATOM     16  O   UNL     1     115.125 124.623 137.595  0.00  0.00    +0.000 OA
ATOM     17  C   UNL     1     113.139 125.717 136.601  0.00  0.00    +0.000 A 
ATOM     18  C   UNL     1     113.858 125.720 136.196  0.00  0.00    +0.000 A 
ATOM     19  C   UNL     1     113.082 125.349 137.338  0.00  0.00    +0.000 A 
ATOM     20  C   UNL     1     114.519 125.355 136.527  0.00  0.00    +0.000 A 
ATOM     21  C   UNL     1     113.744 124.985 137.669  0.00  0.00    +0.000 A 
ATOM     22  C   UNL     1     114.463 124.988 137.263  0.00  0.00    +0.000 A 
ENDBRANCH   7  17
ENDBRANCH   1   6
BRANCH   1  31
ATOM     23  O   UNL     1     112.302 127.720 137.768  0.00  0.00    +0.000 OA
ATOM     24  O   UNL     1     112.348 129.537 138.976  0.00  0.00    +0.000 OA
ATOM     25  O   UNL     1     113.455 129.910 137.811  0.00  0.00    +0.000 OA
ATOM     26  O   UNL     1     113.794 128.822 136.617  0.00  0.00    +0.000 OA
ATOM     27  C   UNL     1     112.132 128.263 138.364  0.00  0.00    +0.000 C 
ATOM     28  C   UNL     1     112.517 128.993 138.379  0.00  0.00    +0.000 C 
ATOM     29  C   UNL     1     113.071 129.180 137.797  0.00  0.00    +0.000 C 
ATOM     30  C   UNL     1     113.240 128.636 137.199  0.00  0.00    +0.000 C 
ATOM     31  C   UNL     1     112.855 127.906 137.185  0.00  0.00    +0.000 C 
BRANCH  27  32
ATOM     32  C   UNL     1     111.579 128.078 138.948  0.00  0.00    +0.000 C 
BRANCH  32  33
ATOM     33  O   UNL     1     111.642 127.371 139.367  0.00  0.00    +0.000 OA
BRANCH  33  38
ATOM     34  O   UNL     1     110.317 127.528 139.880  0.00  0.00    +0.000 OA
ATOM     35  O   UNL     1     111.929 126.180 140.473  0.00  0.00    +0.000 OA
ATOM     36  O   UNL     1     110.749 125.743 141.539  0.00  0.00    +0.000 OA
ATOM     37  O   UNL     1     109.281 126.495 141.500  0.00  0.00    +0.000 OA
ATOM     38  C   UNL     1     111.051 127.152 139.900  0.00  0.00    +0.000 C 
ATOM     39  C   UNL     1     111.195 126.557 140.453  0.00  0.00    +0.000 C 
ATOM     40  C   UNL     1     110.605 126.338 140.986  0.00  0.00    +0.000 C 
ATOM     41  C   UNL     1     109.871 126.715 140.966  0.00  0.00    +0.000 C 
ATOM     42  C   UNL     1     109.728 127.310 140.413  0.00  0.00    +0.000 C 
ENDBRANCH  33  38
ENDBRANCH  32  33
ENDBRANCH  27  32
ENDBRANCH   1  31
TORSDOF 6
ENDMDL
MODEL 4
REMARK VINA RESULT:     -10.1      8.350     12.208
REMARK  Name = 44259141
REMARK  6 active torsions:
REMARK  status: ('A' for Active; 'I' for Inactive)
REMARK    1  A    between atoms: O_2  and  C_22
REMARK    2  A    between atoms: O_2  and  C_23
REMARK    3  A    between atoms: O_6  and  C_21
REMARK    4  A    between atoms: O_6  and  C_28
REMARK    5  A    between atoms: C_17  and  C_22
REMARK    6  A    between atoms: C_29  and  C_33
REMARK                            x       y       z     vdW  Elec       q    Type
REMARK                         _______ _______ _______ _____ _____    ______ ____
ROOT
ATOM      1  O   UNL     1     105.187 125.914 148.484  0.00  0.00    +0.000 OA
ENDROOT
BRANCH   1   6
ATOM      2  O   UNL     1     105.165 124.135 147.217  0.00  0.00    +0.000 OA
ATOM      3  O   UNL     1     103.613 125.905 147.987  0.00  0.00    +0.000 OA
ATOM      4  O   UNL     1     102.529 125.321 147.235  0.00  0.00    +0.000 OA
ATOM      5  O   UNL     1     103.024 122.901 145.676  0.00  0.00    +0.000 OA
ATOM      6  C   UNL     1     104.917 125.320 147.979  0.00  0.00    +0.000 A 
ATOM      7  C   UNL     1     105.434 124.730 147.722  0.00  0.00    +0.000 A 
ATOM      8  C   UNL     1     104.131 125.315 147.730  0.00  0.00    +0.000 A 
ATOM      9  C   UNL     1     103.861 124.721 147.225  0.00  0.00    +0.000 A 
ATOM     10  C   UNL     1     104.378 124.132 146.969  0.00  0.00    +0.000 A 
ATOM     11  C   UNL     1     103.039 124.727 146.973  0.00  0.00    +0.000 A 
ATOM     12  C   UNL     1     104.109 123.508 146.443  0.00  0.00    +0.000 A 
ATOM     13  C   UNL     1     102.752 124.111 146.448  0.00  0.00    +0.000 A 
ATOM     14  C   UNL     1     103.291 123.497 146.181  0.00  0.00    +0.000 A 
BRANCH   7  17
ATOM     15  O   UNL     1     108.195 125.247 147.195  0.00  0.00    +0.000 OA
ATOM     16  O   UNL     1     108.580 124.749 148.720  0.00  0.00    +0.000 OA
ATOM     17  C   UNL     1     106.221 124.735 147.971  0.00  0.00    +0.000 A 
ATOM     18  C   UNL     1     106.815 124.989 147.458  0.00  0.00    +0.000 A 
ATOM     19  C   UNL     1     106.413 124.485 148.734  0.00  0.00    +0.000 A 
ATOM     20  C   UNL     1     107.601 124.993 147.708  0.00  0.00    +0.000 A 
ATOM     21  C   UNL     1     107.199 124.490 148.983  0.00  0.00    +0.000 A 
ATOM     22  C   UNL     1     107.793 124.744 148.470  0.00  0.00    +0.000 A 
ENDBRANCH   7  17
ENDBRANCH   1   6
BRANCH   1  31
ATOM     23  O   UNL     1     105.238 126.917 147.467  0.00  0.00    +0.000 OA
ATOM     24  O   UNL     1     104.958 129.079 147.577  0.00  0.00    +0.000 OA
ATOM     25  O   UNL     1     104.742 128.656 149.157  0.00  0.00    +0.000 OA
ATOM     26  O   UNL     1     104.856 127.073 149.611  0.00  0.00    +0.000 OA
ATOM     27  C   UNL     1     105.181 127.707 147.240  0.00  0.00    +0.000 C 
ATOM     28  C   UNL     1     105.015 128.287 147.804  0.00  0.00    +0.000 C 
ATOM     29  C   UNL     1     104.907 128.076 148.594  0.00  0.00    +0.000 C 
ATOM     30  C   UNL     1     104.965 127.284 148.821  0.00  0.00    +0.000 C 
ATOM     31  C   UNL     1     105.130 126.704 148.257  0.00  0.00    +0.000 C 
BRANCH  27  32
ATOM     32  C   UNL     1     105.289 127.920 146.450  0.00  0.00    +0.000 C 
BRANCH  32  33
ATOM     33  O   UNL     1     105.980 127.706 146.056  0.00  0.00    +0.000 OA
BRANCH  33  38
ATOM     34  O   UNL     1     105.324 127.813 144.791  0.00  0.00    +0.000 OA
ATOM     35  O   UNL     1     107.443 127.666 145.294  0.00  0.00    +0.000 OA
ATOM     36  O   UNL     1     107.518 127.752 143.648  0.00  0.00    +0.000 OA
ATOM     37  O   UNL     1     106.130 127.879 142.764  0.00  0.00    +0.000 OA
ATOM     38  C   UNL     1     106.017 127.749 145.233  0.00  0.00    +0.000 C 
ATOM     39  C   UNL     1     106.749 127.729 144.852  0.00  0.00    +0.000 C 
ATOM     40  C   UNL     1     106.787 127.772 144.029  0.00  0.00    +0.000 C 
ATOM     41  C   UNL     1     106.093 127.836 143.588  0.00  0.00    +0.000 C 
ATOM     42  C   UNL     1     105.361 127.856 143.969  0.00  0.00    +0.000 C 
ENDBRANCH  33  38
ENDBRANCH  32  33
ENDBRANCH  27  32
ENDBRANCH   1  31
TORSDOF 6
ENDMDL
MODEL 5
REMARK VINA RESULT:     -10.1      1.473      4.535
REMARK  Name = 44259141
REMARK  6 active torsions:
REMARK  status: ('A' for Active; 'I' for Inactive)
REMARK    1  A    between atoms: O_2  and  C_22
REMARK    2  A    between atoms: O_2  and  C_23
REMARK    3  A    between atoms: O_6  and  C_21
REMARK    4  A    between atoms: O_6  and  C_28
REMARK    5  A    between atoms: C_17  and  C_22
REMARK    6  A    between atoms: C_29  and  C_33
REMARK                            x       y       z     vdW  Elec       q    Type
REMARK                         _______ _______ _______ _____ _____    ______ ____
ROOT
ATOM      1  O   UNL     1     111.821 125.365 136.845  0.00  0.00    +0.000 OA
ENDROOT
BRANCH   1   6
ATOM      2  O   UNL     1     112.864 126.022 138.647  0.00  0.00    +0.000 OA
ATOM      3  O   UNL     1     110.546 125.723 137.829  0.00  0.00    +0.000 OA
ATOM      4  O   UNL     1     110.012 126.180 139.089  0.00  0.00    +0.000 OA
ATOM      5  O   UNL     1     111.857 126.956 141.216  0.00  0.00    +0.000 OA
ATOM      6  C   UNL     1     111.956 125.644 137.609  0.00  0.00    +0.000 A 
ATOM      7  C   UNL     1     112.729 125.744 137.882  0.00  0.00    +0.000 A 
ATOM      8  C   UNL     1     111.319 125.823 138.102  0.00  0.00    +0.000 A 
ATOM      9  C   UNL     1     111.454 126.101 138.867  0.00  0.00    +0.000 A 
ATOM     10  C   UNL     1     112.226 126.201 139.139  0.00  0.00    +0.000 A 
ATOM     11  C   UNL     1     110.781 126.283 139.370  0.00  0.00    +0.000 A 
ATOM     12  C   UNL     1     112.379 126.490 139.933  0.00  0.00    +0.000 A 
ATOM     13  C   UNL     1     110.915 126.574 140.167  0.00  0.00    +0.000 A 
ATOM     14  C   UNL     1     111.720 126.678 140.451  0.00  0.00    +0.000 A 
BRANCH   7  17
ATOM     15  O   UNL     1     114.853 126.600 136.172  0.00  0.00    +0.000 OA
ATOM     16  O   UNL     1     115.277 125.026 135.912  0.00  0.00    +0.000 OA
ATOM     17  C   UNL     1     113.366 125.565 137.390  0.00  0.00    +0.000 A 
ATOM     18  C   UNL     1     113.791 126.172 137.027  0.00  0.00    +0.000 A 
ATOM     19  C   UNL     1     113.578 124.778 137.260  0.00  0.00    +0.000 A 
ATOM     20  C   UNL     1     114.428 125.992 136.534  0.00  0.00    +0.000 A 
ATOM     21  C   UNL     1     114.215 124.599 136.767  0.00  0.00    +0.000 A 
ATOM     22  C   UNL     1     114.640 125.206 136.404  0.00  0.00    +0.000 A 
ENDBRANCH   7  17
ENDBRANCH   1   6
BRANCH   1  31
ATOM     23  O   UNL     1     111.410 126.644 136.357  0.00  0.00    +0.000 OA
ATOM     24  O   UNL     1     110.087 127.186 134.708  0.00  0.00    +0.000 OA
ATOM     25  O   UNL     1     110.042 125.539 134.615  0.00  0.00    +0.000 OA
ATOM     26  O   UNL     1     110.910 124.629 135.683  0.00  0.00    +0.000 OA
ATOM     27  C   UNL     1     110.977 127.099 135.823  0.00  0.00    +0.000 C 
ATOM     28  C   UNL     1     110.521 126.731 135.242  0.00  0.00    +0.000 C 
ATOM     29  C   UNL     1     110.498 125.907 135.195  0.00  0.00    +0.000 C 
ATOM     30  C   UNL     1     110.932 125.452 135.730  0.00  0.00    +0.000 C 
ATOM     31  C   UNL     1     111.388 125.820 136.311  0.00  0.00    +0.000 C 
BRANCH  27  32
ATOM     32  C   UNL     1     110.998 127.923 135.869  0.00  0.00    +0.000 C 
BRANCH  32  33
ATOM     33  O   UNL     1     111.722 128.316 135.895  0.00  0.00    +0.000 OA
BRANCH  33  38
ATOM     34  O   UNL     1     111.158 129.360 136.690  0.00  0.00    +0.000 OA
ATOM     35  O   UNL     1     113.045 129.257 135.598  0.00  0.00    +0.000 OA
ATOM     36  O   UNL     1     113.142 130.771 136.245  0.00  0.00    +0.000 OA
ATOM     37  O   UNL     1     111.916 131.345 137.190  0.00  0.00    +0.000 OA
ATOM     38  C   UNL     1     111.770 129.073 136.219  0.00  0.00    +0.000 C 
ATOM     39  C   UNL     1     112.431 129.544 136.070  0.00  0.00    +0.000 C 
ATOM     40  C   UNL     1     112.480 130.301 136.394  0.00  0.00    +0.000 C 
ATOM     41  C   UNL     1     111.868 130.587 136.866  0.00  0.00    +0.000 C 
ATOM     42  C   UNL     1     111.206 130.117 137.014  0.00  0.00    +0.000 C 
ENDBRANCH  33  38
ENDBRANCH  32  33
ENDBRANCH  27  32
ENDBRANCH   1  31
TORSDOF 6
ENDMDL
MODEL 6
REMARK VINA RESULT:     -10.0      1.135      4.316
REMARK  Name = 44259141
REMARK  6 active torsions:
REMARK  status: ('A' for Active; 'I' for Inactive)
REMARK    1  A    between atoms: O_2  and  C_22
REMARK    2  A    between atoms: O_2  and  C_23
REMARK    3  A    between atoms: O_6  and  C_21
REMARK    4  A    between atoms: O_6  and  C_28
REMARK    5  A    between atoms: C_17  and  C_22
REMARK    6  A    between atoms: C_29  and  C_33
REMARK                            x       y       z     vdW  Elec       q    Type
REMARK                         _______ _______ _______ _____ _____    ______ ____
ROOT
ATOM      1  O   UNL     1     112.568 126.610 138.217  0.00  0.00    +0.000 OA
ENDROOT
BRANCH   1   6
ATOM      2  O   UNL     1     113.184 127.162 136.197  0.00  0.00    +0.000 OA
ATOM      3  O   UNL     1     113.036 128.176 138.451  0.00  0.00    +0.000 OA
ATOM      4  O   UNL     1     113.556 129.426 137.954  0.00  0.00    +0.000 OA
ATOM      5  O   UNL     1     114.238 129.656 135.123  0.00  0.00    +0.000 OA
ATOM      6  C   UNL     1     112.851 127.055 137.583  0.00  0.00    +0.000 A 
ATOM      7  C   UNL     1     112.901 126.717 136.831  0.00  0.00    +0.000 A 
ATOM      8  C   UNL     1     113.085 127.838 137.699  0.00  0.00    +0.000 A 
ATOM      9  C   UNL     1     113.368 128.282 137.064  0.00  0.00    +0.000 A 
ATOM     10  C   UNL     1     113.418 127.945 136.314  0.00  0.00    +0.000 A 
ATOM     11  C   UNL     1     113.609 129.097 137.199  0.00  0.00    +0.000 A 
ATOM     12  C   UNL     1     113.711 128.398 135.645  0.00  0.00    +0.000 A 
ATOM     13  C   UNL     1     113.904 129.565 136.542  0.00  0.00    +0.000 A 
ATOM     14  C   UNL     1     113.956 129.213 135.759  0.00  0.00    +0.000 A 
BRANCH   7  17
ATOM     15  O   UNL     1     110.998 124.820 135.859  0.00  0.00    +0.000 OA
ATOM     16  O   UNL     1     111.968 123.586 136.369  0.00  0.00    +0.000 OA
ATOM     17  C   UNL     1     112.667 125.935 136.715  0.00  0.00    +0.000 A 
ATOM     18  C   UNL     1     111.949 125.769 136.345  0.00  0.00    +0.000 A 
ATOM     19  C   UNL     1     113.153 125.318 136.971  0.00  0.00    +0.000 A 
ATOM     20  C   UNL     1     111.716 124.986 136.229  0.00  0.00    +0.000 A 
ATOM     21  C   UNL     1     112.919 124.535 136.855  0.00  0.00    +0.000 A 
ATOM     22  C   UNL     1     112.201 124.369 136.484  0.00  0.00    +0.000 A 
ENDBRANCH   7  17
ENDBRANCH   1   6
BRANCH   1  31
ATOM     23  O   UNL     1     111.333 127.327 138.264  0.00  0.00    +0.000 OA
ATOM     24  O   UNL     1     109.920 127.635 139.899  0.00  0.00    +0.000 OA
ATOM     25  O   UNL     1     111.067 126.714 140.647  0.00  0.00    +0.000 OA
ATOM     26  O   UNL     1     112.391 126.202 139.806  0.00  0.00    +0.000 OA
ATOM     27  C   UNL     1     110.671 127.583 138.684  0.00  0.00    +0.000 C 
ATOM     28  C   UNL     1     110.583 127.378 139.478  0.00  0.00    +0.000 C 
ATOM     29  C   UNL     1     111.156 126.918 139.853  0.00  0.00    +0.000 C 
ATOM     30  C   UNL     1     111.818 126.662 139.432  0.00  0.00    +0.000 C 
ATOM     31  C   UNL     1     111.907 126.866 138.637  0.00  0.00    +0.000 C 
BRANCH  27  32
ATOM     32  C   UNL     1     110.097 128.043 138.311  0.00  0.00    +0.000 C 
BRANCH  32  33
ATOM     33  O   UNL     1     109.815 127.828 137.567  0.00  0.00    +0.000 OA
BRANCH  33  38
ATOM     34  O   UNL     1     109.671 129.191 137.161  0.00  0.00    +0.000 OA
ATOM     35  O   UNL     1     108.733 127.369 136.408  0.00  0.00    +0.000 OA
ATOM     36  O   UNL     1     108.048 128.502 135.424  0.00  0.00    +0.000 OA
ATOM     37  O   UNL     1     108.445 130.094 135.597  0.00  0.00    +0.000 OA
ATOM     38  C   UNL     1     109.473 128.395 137.074  0.00  0.00    +0.000 C 
ATOM     39  C   UNL     1     108.932 128.165 136.495  0.00  0.00    +0.000 C 
ATOM     40  C   UNL     1     108.589 128.731 136.003  0.00  0.00    +0.000 C 
ATOM     41  C   UNL     1     108.788 129.527 136.090  0.00  0.00    +0.000 C 
ATOM     42  C   UNL     1     109.329 129.757 136.669  0.00  0.00    +0.000 C 
ENDBRANCH  33  38
ENDBRANCH  32  33
ENDBRANCH  27  32
ENDBRANCH   1  31
TORSDOF 6
ENDMDL
MODEL 7
REMARK VINA RESULT:     -10.0      1.978      4.554
REMARK  Name = 44259141
REMARK  6 active torsions:
REMARK  status: ('A' for Active; 'I' for Inactive)
REMARK    1  A    between atoms: O_2  and  C_22
REMARK    2  A    between atoms: O_2  and  C_23
REMARK    3  A    between atoms: O_6  and  C_21
REMARK    4  A    between atoms: O_6  and  C_28
REMARK    5  A    between atoms: C_17  and  C_22
REMARK    6  A    between atoms: C_29  and  C_33
REMARK                            x       y       z     vdW  Elec       q    Type
REMARK                         _______ _______ _______ _____ _____    ______ ____
ROOT
ATOM      1  O   UNL     1     111.272 127.346 137.218  0.00  0.00    +0.000 OA
ENDROOT
BRANCH   1   6
ATOM      2  O   UNL     1     112.281 128.008 135.399  0.00  0.00    +0.000 OA
ATOM      3  O   UNL     1     112.364 128.416 137.839  0.00  0.00    +0.000 OA
ATOM      4  O   UNL     1     113.439 129.364 137.673  0.00  0.00    +0.000 OA
ATOM      5  O   UNL     1     114.449 129.909 134.987  0.00  0.00    +0.000 OA
ATOM      6  C   UNL     1     111.790 127.745 136.715  0.00  0.00    +0.000 A 
ATOM      7  C   UNL     1     111.763 127.609 135.901  0.00  0.00    +0.000 A 
ATOM      8  C   UNL     1     112.336 128.280 137.025  0.00  0.00    +0.000 A 
ATOM      9  C   UNL     1     112.855 128.679 136.523  0.00  0.00    +0.000 A 
ATOM     10  C   UNL     1     112.827 128.543 135.710  0.00  0.00    +0.000 A 
ATOM     11  C   UNL     1     113.418 129.234 136.858  0.00  0.00    +0.000 A 
ATOM     12  C   UNL     1     113.361 128.953 135.176  0.00  0.00    +0.000 A 
ATOM     13  C   UNL     1     113.961 129.653 136.340  0.00  0.00    +0.000 A 
ATOM     14  C   UNL     1     113.932 129.511 135.492  0.00  0.00    +0.000 A 
BRANCH   7  17
ATOM     15  O   UNL     1     110.873 124.920 135.521  0.00  0.00    +0.000 OA
ATOM     16  O   UNL     1     109.577 125.470 134.661  0.00  0.00    +0.000 OA
ATOM     17  C   UNL     1     111.217 127.074 135.592  0.00  0.00    +0.000 A 
ATOM     18  C   UNL     1     111.319 126.264 135.712  0.00  0.00    +0.000 A 
ATOM     19  C   UNL     1     110.568 127.349 135.161  0.00  0.00    +0.000 A 
ATOM     20  C   UNL     1     110.772 125.730 135.401  0.00  0.00    +0.000 A 
ATOM     21  C   UNL     1     110.023 126.814 134.851  0.00  0.00    +0.000 A 
ATOM     22  C   UNL     1     110.124 126.004 134.971  0.00  0.00    +0.000 A 
ENDBRANCH   7  17
ENDBRANCH   1   6
BRANCH   1  31
ATOM     23  O   UNL     1     110.430 128.480 137.433  0.00  0.00    +0.000 OA
ATOM     24  O   UNL     1     109.210 129.049 139.152  0.00  0.00    +0.000 OA
ATOM     25  O   UNL     1     109.864 127.632 139.689  0.00  0.00    +0.000 OA
ATOM     26  O   UNL     1     110.895 126.780 138.722  0.00  0.00    +0.000 OA
ATOM     27  C   UNL     1     109.915 128.905 137.916  0.00  0.00    +0.000 C 
ATOM     28  C   UNL     1     109.726 128.623 138.668  0.00  0.00    +0.000 C 
ATOM     29  C   UNL     1     110.053 127.914 138.937  0.00  0.00    +0.000 C 
ATOM     30  C   UNL     1     110.568 127.488 138.453  0.00  0.00    +0.000 C 
ATOM     31  C   UNL     1     110.757 127.771 137.701  0.00  0.00    +0.000 C 
BRANCH  27  32
ATOM     32  C   UNL     1     109.588 129.614 137.649  0.00  0.00    +0.000 C 
BRANCH  32  33
ATOM     33  O   UNL     1     109.156 129.631 136.946  0.00  0.00    +0.000 OA
BRANCH  33  38
ATOM     34  O   UNL     1     109.551 130.969 136.638  0.00  0.00    +0.000 OA
ATOM     35  O   UNL     1     107.790 129.825 136.042  0.00  0.00    +0.000 OA
ATOM     36  O   UNL     1     107.502 131.260 135.281  0.00  0.00    +0.000 OA
ATOM     37  O   UNL     1     108.579 132.502 135.425  0.00  0.00    +0.000 OA
ATOM     38  C   UNL     1     109.013 130.349 136.566  0.00  0.00    +0.000 C 
ATOM     39  C   UNL     1     108.330 130.446 136.114  0.00  0.00    +0.000 C 
ATOM     40  C   UNL     1     108.185 131.163 135.733  0.00  0.00    +0.000 C 
ATOM     41  C   UNL     1     108.723 131.783 135.806  0.00  0.00    +0.000 C 
ATOM     42  C   UNL     1     109.407 131.686 136.258  0.00  0.00    +0.000 C 
ENDBRANCH  33  38
ENDBRANCH  32  33
ENDBRANCH  27  32
ENDBRANCH   1  31
TORSDOF 6
ENDMDL
MODEL 8
REMARK VINA RESULT:     -10.0      1.777      4.245
REMARK  Name = 44259141
REMARK  6 active torsions:
REMARK  status: ('A' for Active; 'I' for Inactive)
REMARK    1  A    between atoms: O_2  and  C_22
REMARK    2  A    between atoms: O_2  and  C_23
REMARK    3  A    between atoms: O_6  and  C_21
REMARK    4  A    between atoms: O_6  and  C_28
REMARK    5  A    between atoms: C_17  and  C_22
REMARK    6  A    between atoms: C_29  and  C_33
REMARK                            x       y       z     vdW  Elec       q    Type
REMARK                         _______ _______ _______ _____ _____    ______ ____
ROOT
ATOM      1  O   UNL     1     112.158 126.911 136.951  0.00  0.00    +0.000 OA
ENDROOT
BRANCH   1   6
ATOM      2  O   UNL     1     114.048 127.488 136.023  0.00  0.00    +0.000 OA
ATOM      3  O   UNL     1     111.795 128.433 136.427  0.00  0.00    +0.000 OA
ATOM      4  O   UNL     1     112.161 129.663 135.766  0.00  0.00    +0.000 OA
ATOM      5  O   UNL     1     114.857 129.941 134.676  0.00  0.00    +0.000 OA
ATOM      6  C   UNL     1     112.727 127.357 136.554  0.00  0.00    +0.000 A 
ATOM      7  C   UNL     1     113.478 127.042 136.419  0.00  0.00    +0.000 A 
ATOM      8  C   UNL     1     112.547 128.118 136.292  0.00  0.00    +0.000 A 
ATOM      9  C   UNL     1     113.116 128.564 135.895  0.00  0.00    +0.000 A 
ATOM     10  C   UNL     1     113.866 128.249 135.761  0.00  0.00    +0.000 A 
ATOM     11  C   UNL     1     112.915 129.356 135.627  0.00  0.00    +0.000 A 
ATOM     12  C   UNL     1     114.467 128.704 135.349  0.00  0.00    +0.000 A 
ATOM     13  C   UNL     1     113.503 129.825 135.213  0.00  0.00    +0.000 A 
ATOM     14  C   UNL     1     114.286 129.497 135.073  0.00  0.00    +0.000 A 
BRANCH   7  17
ATOM     15  O   UNL     1     114.860 125.307 138.222  0.00  0.00    +0.000 OA
ATOM     16  O   UNL     1     114.199 123.997 137.467  0.00  0.00    +0.000 OA
ATOM     17  C   UNL     1     113.659 126.281 136.682  0.00  0.00    +0.000 A 
ATOM     18  C   UNL     1     114.169 126.175 137.321  0.00  0.00    +0.000 A 
ATOM     19  C   UNL     1     113.328 125.626 136.304  0.00  0.00    +0.000 A 
ATOM     20  C   UNL     1     114.349 125.413 137.582  0.00  0.00    +0.000 A 
ATOM     21  C   UNL     1     113.508 124.865 136.566  0.00  0.00    +0.000 A 
ATOM     22  C   UNL     1     114.019 124.759 137.206  0.00  0.00    +0.000 A 
ENDBRANCH   7  17
ENDBRANCH   1   6
BRANCH   1  31
ATOM     23  O   UNL     1     112.308 127.613 138.187  0.00  0.00    +0.000 OA
ATOM     24  O   UNL     1     110.877 128.016 139.785  0.00  0.00    +0.000 OA
ATOM     25  O   UNL     1     109.935 127.165 138.730  0.00  0.00    +0.000 OA
ATOM     26  O   UNL     1     110.576 126.613 137.313  0.00  0.00    +0.000 OA
ATOM     27  C   UNL     1     111.988 127.889 138.895  0.00  0.00    +0.000 C 
ATOM     28  C   UNL     1     111.197 127.740 139.076  0.00  0.00    +0.000 C 
ATOM     29  C   UNL     1     110.726 127.314 138.549  0.00  0.00    +0.000 C 
ATOM     30  C   UNL     1     111.047 127.038 137.840  0.00  0.00    +0.000 C 
ATOM     31  C   UNL     1     111.838 127.187 137.659  0.00  0.00    +0.000 C 
BRANCH  27  32
ATOM     32  C   UNL     1     112.458 128.315 139.422  0.00  0.00    +0.000 C 
BRANCH  32  33
ATOM     33  O   UNL     1     112.782 129.039 139.196  0.00  0.00    +0.000 OA
BRANCH  33  38
ATOM     34  O   UNL     1     113.759 128.934 140.233  0.00  0.00    +0.000 OA
ATOM     35  O   UNL     1     113.317 130.559 138.845  0.00  0.00    +0.000 OA
ATOM     36  O   UNL     1     114.562 131.215 139.707  0.00  0.00    +0.000 OA
ATOM     37  O   UNL     1     115.272 130.350 140.919  0.00  0.00    +0.000 OA
ATOM     38  C   UNL     1     113.405 129.366 139.627  0.00  0.00    +0.000 C 
ATOM     39  C   UNL     1     113.672 130.126 139.452  0.00  0.00    +0.000 C 
ATOM     40  C   UNL     1     114.295 130.455 139.882  0.00  0.00    +0.000 C 
ATOM     41  C   UNL     1     114.649 130.022 140.488  0.00  0.00    +0.000 C 
ATOM     42  C   UNL     1     114.381 129.261 140.664  0.00  0.00    +0.000 C 
ENDBRANCH  33  38
ENDBRANCH  32  33
ENDBRANCH  27  32
ENDBRANCH   1  31
TORSDOF 6
ENDMDL
MODEL 9
REMARK VINA RESULT:      -9.9      1.225      3.930
REMARK  Name = 44259141
REMARK  6 active torsions:
REMARK  status: ('A' for Active; 'I' for Inactive)
REMARK    1  A    between atoms: O_2  and  C_22
REMARK    2  A    between atoms: O_2  and  C_23
REMARK    3  A    between atoms: O_6  and  C_21
REMARK    4  A    between atoms: O_6  and  C_28
REMARK    5  A    between atoms: C_17  and  C_22
REMARK    6  A    between atoms: C_29  and  C_33
REMARK                            x       y       z     vdW  Elec       q    Type
REMARK                         _______ _______ _______ _____ _____    ______ ____
ROOT
ATOM      1  O   UNL     1     113.222 126.706 137.205  0.00  0.00    +0.000 OA
ENDROOT
BRANCH   1   6
ATOM      2  O   UNL     1     111.977 126.002 138.855  0.00  0.00    +0.000 OA
ATOM      3  O   UNL     1     113.534 127.858 138.344  0.00  0.00    +0.000 OA
ATOM      4  O   UNL     1     113.344 128.418 139.660  0.00  0.00    +0.000 OA
ATOM      5  O   UNL     1     111.544 127.075 141.528  0.00  0.00    +0.000 OA
ATOM      6  C   UNL     1     112.859 126.664 137.945  0.00  0.00    +0.000 A 
ATOM      7  C   UNL     1     112.340 126.045 138.115  0.00  0.00    +0.000 A 
ATOM      8  C   UNL     1     113.015 127.239 138.515  0.00  0.00    +0.000 A 
ATOM      9  C   UNL     1     112.652 127.197 139.254  0.00  0.00    +0.000 A 
ATOM     10  C   UNL     1     112.134 126.579 139.424  0.00  0.00    +0.000 A 
ATOM     11  C   UNL     1     112.823 127.803 139.839  0.00  0.00    +0.000 A 
ATOM     12  C   UNL     1     111.750 126.524 140.191  0.00  0.00    +0.000 A 
ATOM     13  C   UNL     1     112.449 127.765 140.611  0.00  0.00    +0.000 A 
ATOM     14  C   UNL     1     111.908 127.120 140.789  0.00  0.00    +0.000 A 
BRANCH   7  17
ATOM     15  O   UNL     1     110.619 124.936 136.121  0.00  0.00    +0.000 OA
ATOM     16  O   UNL     1     111.720 123.741 135.835  0.00  0.00    +0.000 OA
ATOM     17  C   UNL     1     112.184 125.469 137.545  0.00  0.00    +0.000 A 
ATOM     18  C   UNL     1     111.479 125.491 137.118  0.00  0.00    +0.000 A 
ATOM     19  C   UNL     1     112.735 124.871 137.402  0.00  0.00    +0.000 A 
ATOM     20  C   UNL     1     111.324 124.915 136.548  0.00  0.00    +0.000 A 
ATOM     21  C   UNL     1     112.580 124.296 136.832  0.00  0.00    +0.000 A 
ATOM     22  C   UNL     1     111.874 124.317 136.405  0.00  0.00    +0.000 A 
ENDBRANCH   7  17
ENDBRANCH   1   6
BRANCH   1  31
ATOM     23  O   UNL     1     112.420 127.799 136.751  0.00  0.00    +0.000 OA
ATOM     24  O   UNL     1     112.862 129.408 135.344  0.00  0.00    +0.000 OA
ATOM     25  O   UNL     1     114.286 128.573 135.320  0.00  0.00    +0.000 OA
ATOM     26  O   UNL     1     114.465 127.223 136.251  0.00  0.00    +0.000 OA
ATOM     27  C   UNL     1     112.330 128.474 136.286  0.00  0.00    +0.000 C 
ATOM     28  C   UNL     1     112.952 128.732 135.809  0.00  0.00    +0.000 C 
ATOM     29  C   UNL     1     113.664 128.315 135.797  0.00  0.00    +0.000 C 
ATOM     30  C   UNL     1     113.754 127.639 136.263  0.00  0.00    +0.000 C 
ATOM     31  C   UNL     1     113.132 127.381 136.740  0.00  0.00    +0.000 C 
BRANCH  27  32
ATOM     32  C   UNL     1     111.619 128.891 136.298  0.00  0.00    +0.000 C 
BRANCH  32  33
ATOM     33  O   UNL     1     110.909 128.501 136.146  0.00  0.00    +0.000 OA
BRANCH  33  38
ATOM     34  O   UNL     1     110.161 129.572 136.726  0.00  0.00    +0.000 OA
ATOM     35  O   UNL     1     109.530 127.912 135.458  0.00  0.00    +0.000 OA
ATOM     36  O   UNL     1     108.093 128.687 135.694  0.00  0.00    +0.000 OA
ATOM     37  O   UNL     1     108.034 130.053 136.619  0.00  0.00    +0.000 OA
ATOM     38  C   UNL     1     110.190 128.890 136.264  0.00  0.00    +0.000 C 
ATOM     39  C   UNL     1     109.501 128.595 135.920  0.00  0.00    +0.000 C 
ATOM     40  C   UNL     1     108.782 128.982 136.038  0.00  0.00    +0.000 C 
ATOM     41  C   UNL     1     108.754 129.665 136.500  0.00  0.00    +0.000 C 
ATOM     42  C   UNL     1     109.443 129.960 136.845  0.00  0.00    +0.000 C 
ENDBRANCH  33  38
ENDBRANCH  32  33
ENDBRANCH  27  32
ENDBRANCH   1  31
TORSDOF 6
ENDMDL
MODEL 10
REMARK VINA RESULT:      -9.9      1.780      4.555
REMARK  Name = 44259141
REMARK  6 active torsions:
REMARK  status: ('A' for Active; 'I' for Inactive)
REMARK    1  A    between atoms: O_2  and  C_22
REMARK    2  A    between atoms: O_2  and  C_23
REMARK    3  A    between atoms: O_6  and  C_21
REMARK    4  A    between atoms: O_6  and  C_28
REMARK    5  A    between atoms: C_17  and  C_22
REMARK    6  A    between atoms: C_29  and  C_33
REMARK                            x       y       z     vdW  Elec       q    Type
REMARK                         _______ _______ _______ _____ _____    ______ ____
ROOT
ATOM      1  O   UNL     1     111.953 126.133 139.286  0.00  0.00    +0.000 OA
ENDROOT
BRANCH   1   6
ATOM      2  O   UNL     1     113.858 126.338 138.240  0.00  0.00    +0.000 OA
ATOM      3  O   UNL     1     111.798 124.969 138.126  0.00  0.00    +0.000 OA
ATOM      4  O   UNL     1     112.312 124.239 136.993  0.00  0.00    +0.000 OA
ATOM      5  O   UNL     1     114.959 124.906 135.955  0.00  0.00    +0.000 OA
ATOM      6  C   UNL     1     112.562 126.007 138.744  0.00  0.00    +0.000 A 
ATOM      7  C   UNL     1     113.249 126.464 138.782  0.00  0.00    +0.000 A 
ATOM      8  C   UNL     1     112.485 125.426 138.164  0.00  0.00    +0.000 A 
ATOM      9  C   UNL     1     113.095 125.300 137.622  0.00  0.00    +0.000 A 
ATOM     10  C   UNL     1     113.781 125.755 137.660  0.00  0.00    +0.000 A 
ATOM     11  C   UNL     1     113.002 124.691 137.023  0.00  0.00    +0.000 A 
ATOM     12  C   UNL     1     114.422 125.634 137.102  0.00  0.00    +0.000 A 
ATOM     13  C   UNL     1     113.633 124.554 136.456  0.00  0.00    +0.000 A 
ATOM     14  C   UNL     1     114.349 125.030 136.496  0.00  0.00    +0.000 A 
BRANCH   7  17
ATOM     15  O   UNL     1     113.257 129.219 139.539  0.00  0.00    +0.000 OA
ATOM     16  O   UNL     1     113.556 128.788 141.104  0.00  0.00    +0.000 OA
ATOM     17  C   UNL     1     113.326 127.045 139.362  0.00  0.00    +0.000 A 
ATOM     18  C   UNL     1     113.253 127.842 139.160  0.00  0.00    +0.000 A 
ATOM     19  C   UNL     1     113.475 126.829 140.145  0.00  0.00    +0.000 A 
ATOM     20  C   UNL     1     113.330 128.423 139.741  0.00  0.00    +0.000 A 
ATOM     21  C   UNL     1     113.551 127.411 140.724  0.00  0.00    +0.000 A 
ATOM     22  C   UNL     1     113.479 128.208 140.523  0.00  0.00    +0.000 A 
ENDBRANCH   7  17
ENDBRANCH   1   6
BRANCH   1  31
ATOM     23  O   UNL     1     111.095 126.783 138.345  0.00  0.00    +0.000 OA
ATOM     24  O   UNL     1     108.917 126.862 138.215  0.00  0.00    +0.000 OA
ATOM     25  O   UNL     1     109.115 125.927 139.560  0.00  0.00    +0.000 OA
ATOM     26  O   UNL     1     110.633 125.563 140.095  0.00  0.00    +0.000 OA
ATOM     27  C   UNL     1     110.337 126.965 138.078  0.00  0.00    +0.000 C 
ATOM     28  C   UNL     1     109.677 126.680 138.483  0.00  0.00    +0.000 C 
ATOM     29  C   UNL     1     109.775 126.212 139.155  0.00  0.00    +0.000 C 
ATOM     30  C   UNL     1     110.535 126.030 139.423  0.00  0.00    +0.000 C 
ATOM     31  C   UNL     1     111.194 126.315 139.018  0.00  0.00    +0.000 C 
BRANCH  27  32
ATOM     32  C   UNL     1     110.237 127.432 137.405  0.00  0.00    +0.000 C 
BRANCH  32  33
ATOM     33  O   UNL     1     110.578 128.182 137.369  0.00  0.00    +0.000 OA
BRANCH  33  38
ATOM     34  O   UNL     1     110.356 128.264 135.959  0.00  0.00    +0.000 OA
ATOM     35  O   UNL     1     110.770 129.819 137.434  0.00  0.00    +0.000 OA
ATOM     36  O   UNL     1     110.644 130.720 136.057  0.00  0.00    +0.000 OA
ATOM     37  O   UNL     1     110.327 129.983 134.615  0.00  0.00    +0.000 OA
ATOM     38  C   UNL     1     110.515 128.632 136.680  0.00  0.00    +0.000 C 
ATOM     39  C   UNL     1     110.611 129.451 136.712  0.00  0.00    +0.000 C 
ATOM     40  C   UNL     1     110.548 129.901 136.024  0.00  0.00    +0.000 C 
ATOM     41  C   UNL     1     110.389 129.532 135.304  0.00  0.00    +0.000 C 
ATOM     42  C   UNL     1     110.293 128.714 135.271  0.00  0.00    +0.000 C 
ENDBRANCH  33  38
ENDBRANCH  32  33
ENDBRANCH  27  32
ENDBRANCH   1  31
TORSDOF 6
ENDMDL
