MODEL 1
REMARK VINA RESULT:      -8.1      0.000      0.000
REMARK  Name = 101101166
REMARK  2 active torsions:
REMARK  status: ('A' for Active; 'I' for Inactive)
REMARK    1  A    between atoms: O_3  and  C_16
REMARK    2  A    between atoms: C_6  and  C_9
REMARK                            x       y       z     vdW  Elec       q    Type
REMARK                         _______ _______ _______ _____ _____    ______ ____
ROOT
ATOM      1  O   UNL     1     104.138 125.404 148.208  0.00  0.00    +0.000 OA
ATOM      2  O   UNL     1     105.501 124.115 146.595  0.00  0.00    +0.000 OA
ATOM      3  O   UNL     1     101.696 124.401 146.978  0.00  0.00    +0.000 OA
ATOM      4  C   UNL     1     105.416 125.008 147.707  0.00  0.00    +0.000 C 
ATOM      5  C   UNL     1     104.962 125.438 148.245  0.00  0.00    +0.000 C 
ATOM      6  C   UNL     1     105.047 124.545 147.133  0.00  0.00    +0.000 C 
ATOM      7  C   UNL     1     104.223 124.511 147.097  0.00  0.00    +0.000 A 
ATOM      8  C   UNL     1     103.769 124.941 147.634  0.00  0.00    +0.000 A 
ATOM      9  C   UNL     1     103.850 124.025 146.494  0.00  0.00    +0.000 A 
ATOM     10  C   UNL     1     102.910 124.914 147.607  0.00  0.00    +0.000 A 
ATOM     11  C   UNL     1     102.994 123.985 146.451  0.00  0.00    +0.000 A 
ATOM     12  C   UNL     1     102.520 124.433 147.012  0.00  0.00    +0.000 A 
ENDROOT
BRANCH   4  14
ATOM     13  O   UNL     1     108.711 125.143 147.849  0.00  0.00    +0.000 OA
ATOM     14  C   UNL     1     106.239 125.042 147.743  0.00  0.00    +0.000 A 
ATOM     15  C   UNL     1     106.646 124.604 148.311  0.00  0.00    +0.000 A 
ATOM     16  C   UNL     1     106.656 125.514 147.209  0.00  0.00    +0.000 A 
ATOM     17  C   UNL     1     107.470 124.637 148.347  0.00  0.00    +0.000 A 
ATOM     18  C   UNL     1     107.480 125.547 147.245  0.00  0.00    +0.000 A 
ATOM     19  C   UNL     1     107.886 125.109 147.813  0.00  0.00    +0.000 A 
ENDBRANCH   4  14
BRANCH  11  20
ATOM     20  O   UNL     1     102.627 123.521 145.876  0.00  0.00    +0.000 OA
ATOM     21  C   UNL     1     102.867 122.739 145.763  0.00  0.00    +0.000 C 
ENDBRANCH  11  20
TORSDOF 2
ENDMDL
MODEL 2
REMARK VINA RESULT:      -8.1      6.818      8.705
REMARK  Name = 101101166
REMARK  2 active torsions:
REMARK  status: ('A' for Active; 'I' for Inactive)
REMARK    1  A    between atoms: O_3  and  C_16
REMARK    2  A    between atoms: C_6  and  C_9
REMARK                            x       y       z     vdW  Elec       q    Type
REMARK                         _______ _______ _______ _____ _____    ______ ____
ROOT
ATOM      1  O   UNL     1     105.607 123.150 140.100  0.00  0.00    +0.000 OA
ATOM      2  O   UNL     1     104.358 125.152 139.355  0.00  0.00    +0.000 OA
ATOM      3  O   UNL     1     107.243 124.799 141.856  0.00  0.00    +0.000 OA
ATOM      4  C   UNL     1     104.583 123.742 139.298  0.00  0.00    +0.000 C 
ATOM      5  C   UNL     1     104.999 123.075 139.546  0.00  0.00    +0.000 C 
ATOM      6  C   UNL     1     104.774 124.485 139.603  0.00  0.00    +0.000 C 
ATOM      7  C   UNL     1     105.381 124.559 140.157  0.00  0.00    +0.000 A 
ATOM      8  C   UNL     1     105.797 123.892 140.405  0.00  0.00    +0.000 A 
ATOM      9  C   UNL     1     105.571 125.338 140.468  0.00  0.00    +0.000 A 
ATOM     10  C   UNL     1     106.432 123.957 140.981  0.00  0.00    +0.000 A 
ATOM     11  C   UNL     1     106.201 125.423 141.044  0.00  0.00    +0.000 A 
ATOM     12  C   UNL     1     106.635 124.727 141.303  0.00  0.00    +0.000 A 
ENDROOT
BRANCH   4  14
ATOM     13  O   UNL     1     102.155 123.445 137.083  0.00  0.00    +0.000 OA
ATOM     14  C   UNL     1     103.976 123.668 138.745  0.00  0.00    +0.000 A 
ATOM     15  C   UNL     1     103.189 123.672 138.992  0.00  0.00    +0.000 A 
ATOM     16  C   UNL     1     104.156 123.589 137.943  0.00  0.00    +0.000 A 
ATOM     17  C   UNL     1     102.581 123.597 138.438  0.00  0.00    +0.000 A 
ATOM     18  C   UNL     1     103.549 123.515 137.390  0.00  0.00    +0.000 A 
ATOM     19  C   UNL     1     102.762 123.519 137.637  0.00  0.00    +0.000 A 
ENDBRANCH   4  14
BRANCH  11  20
ATOM     20  O   UNL     1     106.390 126.166 141.347  0.00  0.00    +0.000 OA
ATOM     21  C   UNL     1     105.815 126.611 141.737  0.00  0.00    +0.000 C 
ENDBRANCH  11  20
TORSDOF 2
ENDMDL
MODEL 3
REMARK VINA RESULT:      -8.0     12.872     13.367
REMARK  Name = 101101166
REMARK  2 active torsions:
REMARK  status: ('A' for Active; 'I' for Inactive)
REMARK    1  A    between atoms: O_3  and  C_16
REMARK    2  A    between atoms: C_6  and  C_9
REMARK                            x       y       z     vdW  Elec       q    Type
REMARK                         _______ _______ _______ _____ _____    ______ ____
ROOT
ATOM      1  O   UNL     1     111.138 124.616 136.095  0.00  0.00    +0.000 OA
ATOM      2  O   UNL     1     112.613 126.603 136.115  0.00  0.00    +0.000 OA
ATOM      3  O   UNL     1     109.121 126.104 134.613  0.00  0.00    +0.000 OA
ATOM      4  C   UNL     1     112.368 125.240 136.469  0.00  0.00    +0.000 C 
ATOM      5  C   UNL     1     111.877 124.578 136.462  0.00  0.00    +0.000 C 
ATOM      6  C   UNL     1     112.121 125.941 136.108  0.00  0.00    +0.000 C 
ATOM      7  C   UNL     1     111.384 125.978 135.741  0.00  0.00    +0.000 A 
ATOM      8  C   UNL     1     110.892 125.317 135.735  0.00  0.00    +0.000 A 
ATOM      9  C   UNL     1     111.138 126.713 135.369  0.00  0.00    +0.000 A 
ATOM     10  C   UNL     1     110.121 125.343 135.355  0.00  0.00    +0.000 A 
ATOM     11  C   UNL     1     110.372 126.760 134.986  0.00  0.00    +0.000 A 
ATOM     12  C   UNL     1     109.859 126.069 134.979  0.00  0.00    +0.000 A 
ENDROOT
BRANCH   4  14
ATOM     13  O   UNL     1     115.321 125.090 137.935  0.00  0.00    +0.000 OA
ATOM     14  C   UNL     1     113.106 125.203 136.835  0.00  0.00    +0.000 A 
ATOM     15  C   UNL     1     113.202 125.495 137.601  0.00  0.00    +0.000 A 
ATOM     16  C   UNL     1     113.748 124.873 136.436  0.00  0.00    +0.000 A 
ATOM     17  C   UNL     1     113.940 125.457 137.968  0.00  0.00    +0.000 A 
ATOM     18  C   UNL     1     114.486 124.836 136.802  0.00  0.00    +0.000 A 
ATOM     19  C   UNL     1     114.582 125.128 137.568  0.00  0.00    +0.000 A 
ENDBRANCH   4  14
BRANCH  11  20
ATOM     20  O   UNL     1     110.128 127.461 134.626  0.00  0.00    +0.000 OA
ATOM     21  C   UNL     1     110.103 128.161 135.062  0.00  0.00    +0.000 C 
ENDBRANCH  11  20
TORSDOF 2
ENDMDL
MODEL 4
REMARK VINA RESULT:      -8.0      1.321      4.254
REMARK  Name = 101101166
REMARK  2 active torsions:
REMARK  status: ('A' for Active; 'I' for Inactive)
REMARK    1  A    between atoms: O_3  and  C_16
REMARK    2  A    between atoms: C_6  and  C_9
REMARK                            x       y       z     vdW  Elec       q    Type
REMARK                         _______ _______ _______ _____ _____    ______ ____
ROOT
ATOM      1  O   UNL     1     104.997 124.452 147.714  0.00  0.00    +0.000 OA
ATOM      2  O   UNL     1     103.890 124.551 145.503  0.00  0.00    +0.000 OA
ATOM      3  O   UNL     1     107.446 125.521 146.558  0.00  0.00    +0.000 OA
ATOM      4  C   UNL     1     103.844 124.239 146.898  0.00  0.00    +0.000 C 
ATOM      5  C   UNL     1     104.213 124.206 147.634  0.00  0.00    +0.000 C 
ATOM      6  C   UNL     1     104.259 124.518 146.240  0.00  0.00    +0.000 C 
ATOM      7  C   UNL     1     105.042 124.764 146.321  0.00  0.00    +0.000 A 
ATOM      8  C   UNL     1     105.411 124.731 147.058  0.00  0.00    +0.000 A 
ATOM      9  C   UNL     1     105.463 125.053 145.630  0.00  0.00    +0.000 A 
ATOM     10  C   UNL     1     106.227 124.985 147.155  0.00  0.00    +0.000 A 
ATOM     11  C   UNL     1     106.278 125.310 145.706  0.00  0.00    +0.000 A 
ATOM     12  C   UNL     1     106.663 125.276 146.475  0.00  0.00    +0.000 A 
ENDROOT
BRANCH   4  14
ATOM     13  O   UNL     1     100.710 123.257 146.574  0.00  0.00    +0.000 OA
ATOM     14  C   UNL     1     103.061 123.993 146.817  0.00  0.00    +0.000 A 
ATOM     15  C   UNL     1     102.893 123.229 146.554  0.00  0.00    +0.000 A 
ATOM     16  C   UNL     1     102.445 124.512 146.998  0.00  0.00    +0.000 A 
ATOM     17  C   UNL     1     102.109 122.983 146.473  0.00  0.00    +0.000 A 
ATOM     18  C   UNL     1     101.662 124.266 146.917  0.00  0.00    +0.000 A 
ATOM     19  C   UNL     1     101.494 123.502 146.655  0.00  0.00    +0.000 A 
ENDBRANCH   4  14
BRANCH  11  20
ATOM     20  O   UNL     1     106.690 125.589 145.048  0.00  0.00    +0.000 OA
ATOM     21  C   UNL     1     106.326 126.112 144.525  0.00  0.00    +0.000 C 
ENDBRANCH  11  20
TORSDOF 2
ENDMDL
MODEL 5
REMARK VINA RESULT:      -7.9      2.738      3.091
REMARK  Name = 101101166
REMARK  2 active torsions:
REMARK  status: ('A' for Active; 'I' for Inactive)
REMARK    1  A    between atoms: O_3  and  C_16
REMARK    2  A    between atoms: C_6  and  C_9
REMARK                            x       y       z     vdW  Elec       q    Type
REMARK                         _______ _______ _______ _____ _____    ______ ____
ROOT
ATOM      1  O   UNL     1     106.416 127.099 146.331  0.00  0.00    +0.000 OA
ATOM      2  O   UNL     1     106.643 124.639 146.186  0.00  0.00    +0.000 OA
ATOM      3  O   UNL     1     105.349 127.180 143.623  0.00  0.00    +0.000 OA
ATOM      4  C   UNL     1     106.791 125.855 146.924  0.00  0.00    +0.000 C 
ATOM      5  C   UNL     1     106.715 126.674 146.972  0.00  0.00    +0.000 C 
ATOM      6  C   UNL     1     106.567 125.459 146.235  0.00  0.00    +0.000 C 
ATOM      7  C   UNL     1     106.268 125.885 145.594  0.00  0.00    +0.000 A 
ATOM      8  C   UNL     1     106.193 126.704 145.642  0.00  0.00    +0.000 A 
ATOM      9  C   UNL     1     106.039 125.462 144.882  0.00  0.00    +0.000 A 
ATOM     10  C   UNL     1     105.882 127.159 144.982  0.00  0.00    +0.000 A 
ATOM     11  C   UNL     1     105.727 125.898 144.211  0.00  0.00    +0.000 A 
ATOM     12  C   UNL     1     105.648 126.753 144.262  0.00  0.00    +0.000 A 
ENDROOT
BRANCH   4  14
ATOM     13  O   UNL     1     107.989 124.152 149.485  0.00  0.00    +0.000 OA
ATOM     14  C   UNL     1     107.090 125.429 147.564  0.00  0.00    +0.000 A 
ATOM     15  C   UNL     1     106.577 125.128 148.136  0.00  0.00    +0.000 A 
ATOM     16  C   UNL     1     107.903 125.305 147.633  0.00  0.00    +0.000 A 
ATOM     17  C   UNL     1     106.877 124.702 148.777  0.00  0.00    +0.000 A 
ATOM     18  C   UNL     1     108.202 124.879 148.273  0.00  0.00    +0.000 A 
ATOM     19  C   UNL     1     107.689 124.578 148.844  0.00  0.00    +0.000 A 
ENDBRANCH   4  14
BRANCH  11  20
ATOM     20  O   UNL     1     105.504 125.500 143.524  0.00  0.00    +0.000 OA
ATOM     21  C   UNL     1     106.050 125.027 143.126  0.00  0.00    +0.000 C 
ENDBRANCH  11  20
TORSDOF 2
ENDMDL
MODEL 6
REMARK VINA RESULT:      -7.7      9.590     10.231
REMARK  Name = 101101166
REMARK  2 active torsions:
REMARK  status: ('A' for Active; 'I' for Inactive)
REMARK    1  A    between atoms: O_3  and  C_16
REMARK    2  A    between atoms: C_6  and  C_9
REMARK                            x       y       z     vdW  Elec       q    Type
REMARK                         _______ _______ _______ _____ _____    ______ ____
ROOT
ATOM      1  O   UNL     1     100.894 131.905 142.083  0.00  0.00    +0.000 OA
ATOM      2  O   UNL     1     103.104 132.037 140.977  0.00  0.00    +0.000 OA
ATOM      3  O   UNL     1     100.711 134.811 142.107  0.00  0.00    +0.000 OA
ATOM      4  C   UNL     1     102.040 131.257 141.527  0.00  0.00    +0.000 C 
ATOM      5  C   UNL     1     101.304 131.213 141.895  0.00  0.00    +0.000 C 
ATOM      6  C   UNL     1     102.368 131.993 141.346  0.00  0.00    +0.000 C 
ATOM      7  C   UNL     1     101.958 132.684 141.534  0.00  0.00    +0.000 A 
ATOM      8  C   UNL     1     101.223 132.640 141.902  0.00  0.00    +0.000 A 
ATOM      9  C   UNL     1     102.310 133.444 141.341  0.00  0.00    +0.000 A 
ATOM     10  C   UNL     1     100.786 133.353 142.104  0.00  0.00    +0.000 A 
ATOM     11  C   UNL     1     101.890 134.167 141.534  0.00  0.00    +0.000 A 
ATOM     12  C   UNL     1     101.122 134.121 141.918  0.00  0.00    +0.000 A 
ENDROOT
BRANCH   4  14
ATOM     13  O   UNL     1     103.677 128.492 140.771  0.00  0.00    +0.000 OA
ATOM     14  C   UNL     1     102.449 130.566 141.338  0.00  0.00    +0.000 A 
ATOM     15  C   UNL     1     103.017 130.268 141.857  0.00  0.00    +0.000 A 
ATOM     16  C   UNL     1     102.290 130.173 140.630  0.00  0.00    +0.000 A 
ATOM     17  C   UNL     1     103.427 129.577 141.668  0.00  0.00    +0.000 A 
ATOM     18  C   UNL     1     102.699 129.482 140.442  0.00  0.00    +0.000 A 
ATOM     19  C   UNL     1     103.268 129.184 140.960  0.00  0.00    +0.000 A 
ENDBRANCH   4  14
BRANCH  11  20
ATOM     20  O   UNL     1     102.220 134.901 141.352  0.00  0.00    +0.000 OA
ATOM     21  C   UNL     1     102.491 135.053 140.588  0.00  0.00    +0.000 C 
ENDBRANCH  11  20
TORSDOF 2
ENDMDL
MODEL 7
REMARK VINA RESULT:      -7.7     11.953     12.644
REMARK  Name = 101101166
REMARK  2 active torsions:
REMARK  status: ('A' for Active; 'I' for Inactive)
REMARK    1  A    between atoms: O_3  and  C_16
REMARK    2  A    between atoms: C_6  and  C_9
REMARK                            x       y       z     vdW  Elec       q    Type
REMARK                         _______ _______ _______ _____ _____    ______ ____
ROOT
ATOM      1  O   UNL     1     109.929 125.814 135.258  0.00  0.00    +0.000 OA
ATOM      2  O   UNL     1     111.202 126.367 137.308  0.00  0.00    +0.000 OA
ATOM      3  O   UNL     1     108.156 128.077 135.726  0.00  0.00    +0.000 OA
ATOM      4  C   UNL     1     110.998 125.534 136.164  0.00  0.00    +0.000 C 
ATOM      5  C   UNL     1     110.574 125.350 135.481  0.00  0.00    +0.000 C 
ATOM      6  C   UNL     1     110.777 126.183 136.625  0.00  0.00    +0.000 C 
ATOM      7  C   UNL     1     110.133 126.646 136.401  0.00  0.00    +0.000 A 
ATOM      8  C   UNL     1     109.709 126.462 135.719  0.00  0.00    +0.000 A 
ATOM      9  C   UNL     1     109.913 127.319 136.889  0.00  0.00    +0.000 A 
ATOM     10  C   UNL     1     109.035 126.938 135.476  0.00  0.00    +0.000 A 
ATOM     11  C   UNL     1     109.243 127.806 136.663  0.00  0.00    +0.000 A 
ATOM     12  C   UNL     1     108.801 127.614 135.951  0.00  0.00    +0.000 A 
ENDROOT
BRANCH   4  14
ATOM     13  O   UNL     1     113.576 123.677 137.058  0.00  0.00    +0.000 OA
ATOM     14  C   UNL     1     111.642 125.070 136.387  0.00  0.00    +0.000 A 
ATOM     15  C   UNL     1     112.409 125.315 136.206  0.00  0.00    +0.000 A 
ATOM     16  C   UNL     1     111.520 124.361 136.792  0.00  0.00    +0.000 A 
ATOM     17  C   UNL     1     113.054 124.850 136.430  0.00  0.00    +0.000 A 
ATOM     18  C   UNL     1     112.164 123.898 137.015  0.00  0.00    +0.000 A 
ATOM     19  C   UNL     1     112.931 124.142 136.834  0.00  0.00    +0.000 A 
ENDBRANCH   4  14
BRANCH  11  20
ATOM     20  O   UNL     1     109.025 128.454 137.125  0.00  0.00    +0.000 OA
ATOM     21  C   UNL     1     109.579 129.038 137.304  0.00  0.00    +0.000 C 
ENDBRANCH  11  20
TORSDOF 2
ENDMDL
MODEL 8
REMARK VINA RESULT:      -7.6      8.044      8.974
REMARK  Name = 101101166
REMARK  2 active torsions:
REMARK  status: ('A' for Active; 'I' for Inactive)
REMARK    1  A    between atoms: O_3  and  C_16
REMARK    2  A    between atoms: C_6  and  C_9
REMARK                            x       y       z     vdW  Elec       q    Type
REMARK                         _______ _______ _______ _____ _____    ______ ____
ROOT
ATOM      1  O   UNL     1     102.829 129.776 140.594  0.00  0.00    +0.000 OA
ATOM      2  O   UNL     1     102.958 130.806 142.841  0.00  0.00    +0.000 OA
ATOM      3  O   UNL     1     104.679 127.686 141.424  0.00  0.00    +0.000 OA
ATOM      4  C   UNL     1     102.439 130.802 141.509  0.00  0.00    +0.000 C 
ATOM      5  C   UNL     1     102.396 130.459 140.761  0.00  0.00    +0.000 C 
ATOM      6  C   UNL     1     102.915 130.463 142.092  0.00  0.00    +0.000 C 
ATOM      7  C   UNL     1     103.347 129.781 141.925  0.00  0.00    +0.000 A 
ATOM      8  C   UNL     1     103.304 129.438 141.177  0.00  0.00    +0.000 A 
ATOM      9  C   UNL     1     103.840 129.437 142.540  0.00  0.00    +0.000 A 
ATOM     10  C   UNL     1     103.750 128.726 140.991  0.00  0.00    +0.000 A 
ATOM     11  C   UNL     1     104.292 128.727 142.374  0.00  0.00    +0.000 A 
ATOM     12  C   UNL     1     104.247 128.369 141.593  0.00  0.00    +0.000 A 
ENDROOT
BRANCH   4  14
ATOM     13  O   UNL     1     100.710 133.533 142.176  0.00  0.00    +0.000 OA
ATOM     14  C   UNL     1     102.006 131.484 141.676  0.00  0.00    +0.000 A 
ATOM     15  C   UNL     1     101.240 131.425 141.976  0.00  0.00    +0.000 A 
ATOM     16  C   UNL     1     102.341 132.227 141.542  0.00  0.00    +0.000 A 
ATOM     17  C   UNL     1     100.808 132.108 142.143  0.00  0.00    +0.000 A 
ATOM     18  C   UNL     1     101.909 132.910 141.709  0.00  0.00    +0.000 A 
ATOM     19  C   UNL     1     101.143 132.850 142.009  0.00  0.00    +0.000 A 
ENDBRANCH   4  14
BRANCH  11  20
ATOM     20  O   UNL     1     104.767 128.390 142.958  0.00  0.00    +0.000 OA
ATOM     21  C   UNL     1     105.176 128.873 143.488  0.00  0.00    +0.000 C 
ENDBRANCH  11  20
TORSDOF 2
ENDMDL
MODEL 9
REMARK VINA RESULT:      -7.5     12.807     13.632
REMARK  Name = 101101166
REMARK  2 active torsions:
REMARK  status: ('A' for Active; 'I' for Inactive)
REMARK    1  A    between atoms: O_3  and  C_16
REMARK    2  A    between atoms: C_6  and  C_9
REMARK                            x       y       z     vdW  Elec       q    Type
REMARK                         _______ _______ _______ _____ _____    ______ ____
ROOT
ATOM      1  O   UNL     1     110.863 124.660 135.993  0.00  0.00    +0.000 OA
ATOM      2  O   UNL     1     112.150 126.762 136.220  0.00  0.00    +0.000 OA
ATOM      3  O   UNL     1     113.092 123.151 137.103  0.00  0.00    +0.000 OA
ATOM      4  C   UNL     1     110.956 126.077 135.834  0.00  0.00    +0.000 C 
ATOM      5  C   UNL     1     110.528 125.377 135.758  0.00  0.00    +0.000 C 
ATOM      6  C   UNL     1     111.721 126.061 136.145  0.00  0.00    +0.000 C 
ATOM      7  C   UNL     1     112.056 125.345 136.379  0.00  0.00    +0.000 A 
ATOM      8  C   UNL     1     111.627 124.645 136.304  0.00  0.00    +0.000 A 
ATOM      9  C   UNL     1     112.853 125.341 136.701  0.00  0.00    +0.000 A 
ATOM     10  C   UNL     1     111.965 123.891 136.545  0.00  0.00    +0.000 A 
ATOM     11  C   UNL     1     113.207 124.599 136.948  0.00  0.00    +0.000 A 
ATOM     12  C   UNL     1     112.760 123.869 136.869  0.00  0.00    +0.000 A 
ENDROOT
BRANCH   4  14
ATOM     13  O   UNL     1     109.619 128.944 134.893  0.00  0.00    +0.000 OA
ATOM     14  C   UNL     1     110.622 126.793 135.599  0.00  0.00    +0.000 A 
ATOM     15  C   UNL     1     110.129 127.208 136.115  0.00  0.00    +0.000 A 
ATOM     16  C   UNL     1     110.781 127.096 134.847  0.00  0.00    +0.000 A 
ATOM     17  C   UNL     1     109.795 127.925 135.879  0.00  0.00    +0.000 A 
ATOM     18  C   UNL     1     110.446 127.812 134.612  0.00  0.00    +0.000 A 
ATOM     19  C   UNL     1     109.954 128.227 135.128  0.00  0.00    +0.000 A 
ENDBRANCH   4  14
BRANCH  11  20
ATOM     20  O   UNL     1     113.972 124.586 137.258  0.00  0.00    +0.000 OA
ATOM     21  C   UNL     1     114.579 124.993 136.875  0.00  0.00    +0.000 C 
ENDBRANCH  11  20
TORSDOF 2
ENDMDL
MODEL 10
REMARK VINA RESULT:      -7.4     13.142     13.907
REMARK  Name = 101101166
REMARK  2 active torsions:
REMARK  status: ('A' for Active; 'I' for Inactive)
REMARK    1  A    between atoms: O_3  and  C_16
REMARK    2  A    between atoms: C_6  and  C_9
REMARK                            x       y       z     vdW  Elec       q    Type
REMARK                         _______ _______ _______ _____ _____    ______ ____
ROOT
ATOM      1  O   UNL     1     113.421 126.150 136.718  0.00  0.00    +0.000 OA
ATOM      2  O   UNL     1     111.957 127.912 135.782  0.00  0.00    +0.000 OA
ATOM      3  O   UNL     1     111.379 124.142 136.185  0.00  0.00    +0.000 OA
ATOM      4  C   UNL     1     113.193 127.520 136.383  0.00  0.00    +0.000 C 
ATOM      5  C   UNL     1     113.681 126.933 136.694  0.00  0.00    +0.000 C 
ATOM      6  C   UNL     1     112.445 127.324 136.094  0.00  0.00    +0.000 C 
ATOM      7  C   UNL     1     112.186 126.542 136.117  0.00  0.00    +0.000 A 
ATOM      8  C   UNL     1     112.673 125.955 136.429  0.00  0.00    +0.000 A 
ATOM      9  C   UNL     1     111.404 126.351 135.814  0.00  0.00    +0.000 A 
ATOM     10  C   UNL     1     112.414 125.135 136.459  0.00  0.00    +0.000 A 
ATOM     11  C   UNL     1     111.128 125.538 135.835  0.00  0.00    +0.000 A 
ATOM     12  C   UNL     1     111.637 124.926 136.160  0.00  0.00    +0.000 A 
ENDROOT
BRANCH   4  14
ATOM     13  O   UNL     1     114.229 130.652 136.289  0.00  0.00    +0.000 OA
ATOM     14  C   UNL     1     113.452 128.302 136.359  0.00  0.00    +0.000 A 
ATOM     15  C   UNL     1     113.876 128.578 135.707  0.00  0.00    +0.000 A 
ATOM     16  C   UNL     1     113.287 128.811 136.988  0.00  0.00    +0.000 A 
ATOM     17  C   UNL     1     114.136 129.361 135.683  0.00  0.00    +0.000 A 
ATOM     18  C   UNL     1     113.546 129.593 136.965  0.00  0.00    +0.000 A 
ATOM     19  C   UNL     1     113.970 129.868 136.312  0.00  0.00    +0.000 A 
ENDBRANCH   4  14
BRANCH  11  20
ATOM     20  O   UNL     1     110.380 125.346 135.546  0.00  0.00    +0.000 OA
ATOM     21  C   UNL     1     110.088 125.722 134.872  0.00  0.00    +0.000 C 
ENDBRANCH  11  20
TORSDOF 2
ENDMDL
