MODEL 1
REMARK VINA RESULT:      -7.1      0.000      0.000
REMARK  Name = 14332451
REMARK  8 active torsions:
REMARK  status: ('A' for Active; 'I' for Inactive)
REMARK    1  A    between atoms: O_2  and  C_16
REMARK    2  A    between atoms: O_3  and  C_18
REMARK    3  A    between atoms: O_5  and  C_20
REMARK    4  A    between atoms: O_6  and  C_21
REMARK    5  A    between atoms: O_7  and  C_22
REMARK    6  A    between atoms: O_8  and  C_23
REMARK    7  A    between atoms: O_9  and  C_24
REMARK    8  A    between atoms: C_10  and  C_12
REMARK                            x       y       z     vdW  Elec       q    Type
REMARK                         _______ _______ _______ _____ _____    ______ ____
ROOT
ATOM      1  O   UNL     1     113.384 127.188 136.792  0.00  0.00    +0.000 OA
ATOM      2  O   UNL     1     111.011 126.822 135.988  0.00  0.00    +0.000 OA
ATOM      3  C   UNL     1     112.896 127.868 136.595  0.00  0.00    +0.000 C 
ATOM      4  C   UNL     1     112.090 127.747 136.322  0.00  0.00    +0.000 C 
ATOM      5  C   UNL     1     112.286 126.281 136.451  0.00  0.00    +0.000 A 
ATOM      6  C   UNL     1     111.783 126.947 136.249  0.00  0.00    +0.000 C 
ATOM      7  C   UNL     1     113.059 126.397 136.713  0.00  0.00    +0.000 A 
ATOM      8  C   UNL     1     111.986 125.515 136.379  0.00  0.00    +0.000 A 
ATOM      9  C   UNL     1     113.533 125.748 136.903  0.00  0.00    +0.000 A 
ATOM     10  C   UNL     1     112.458 124.867 136.569  0.00  0.00    +0.000 A 
ATOM     11  C   UNL     1     113.232 124.984 136.831  0.00  0.00    +0.000 A 
ENDROOT
BRANCH   3  12
ATOM     12  C   UNL     1     113.199 128.632 136.668  0.00  0.00    +0.000 A 
ATOM     13  C   UNL     1     113.127 129.038 137.383  0.00  0.00    +0.000 A 
ATOM     14  C   UNL     1     113.573 128.991 136.027  0.00  0.00    +0.000 A 
ATOM     15  C   UNL     1     113.429 129.802 137.457  0.00  0.00    +0.000 A 
ATOM     16  C   UNL     1     113.876 129.755 136.100  0.00  0.00    +0.000 A 
ATOM     17  C   UNL     1     113.804 130.161 136.815  0.00  0.00    +0.000 A 
BRANCH  13  18
ATOM     18  O   UNL     1     112.752 128.680 138.025  0.00  0.00    +0.000 OA
ATOM     19  C   UNL     1     112.163 129.084 138.437  0.00  0.00    +0.000 C 
ENDBRANCH  13  18
BRANCH  15  20
ATOM     20  O   UNL     1     113.357 130.208 138.172  0.00  0.00    +0.000 OA
ATOM     21  C   UNL     1     113.992 130.231 138.698  0.00  0.00    +0.000 C 
ENDBRANCH  15  20
BRANCH  16  22
ATOM     22  O   UNL     1     114.251 130.113 135.458  0.00  0.00    +0.000 OA
ATOM     23  C   UNL     1     114.616 129.649 134.882  0.00  0.00    +0.000 C 
ENDBRANCH  16  22
BRANCH  17  24
ATOM     24  O   UNL     1     114.107 130.924 136.888  0.00  0.00    +0.000 OA
ATOM     25  C   UNL     1     113.680 131.566 136.596  0.00  0.00    +0.000 C 
ENDBRANCH  17  24
ENDBRANCH   3  12
BRANCH   8  26
ATOM     26  O   UNL     1     111.212 125.399 136.117  0.00  0.00    +0.000 OA
ATOM     27  C   UNL     1     111.039 125.439 135.311  0.00  0.00    +0.000 C 
ENDBRANCH   8  26
BRANCH  10  28
ATOM     28  O   UNL     1     112.159 124.102 136.497  0.00  0.00    +0.000 OA
ATOM     29  C   UNL     1     111.874 123.706 137.162  0.00  0.00    +0.000 C 
ENDBRANCH  10  28
BRANCH  11  30
ATOM     30  O   UNL     1     113.706 124.335 137.022  0.00  0.00    +0.000 OA
ATOM     31  C   UNL     1     114.497 124.447 137.222  0.00  0.00    +0.000 C 
ENDBRANCH  11  30
TORSDOF 8
ENDMDL
MODEL 2
REMARK VINA RESULT:      -7.0      0.890      2.316
REMARK  Name = 14332451
REMARK  8 active torsions:
REMARK  status: ('A' for Active; 'I' for Inactive)
REMARK    1  A    between atoms: O_2  and  C_16
REMARK    2  A    between atoms: O_3  and  C_18
REMARK    3  A    between atoms: O_5  and  C_20
REMARK    4  A    between atoms: O_6  and  C_21
REMARK    5  A    between atoms: O_7  and  C_22
REMARK    6  A    between atoms: O_8  and  C_23
REMARK    7  A    between atoms: O_9  and  C_24
REMARK    8  A    between atoms: C_10  and  C_12
REMARK                            x       y       z     vdW  Elec       q    Type
REMARK                         _______ _______ _______ _____ _____    ______ ____
ROOT
ATOM      1  O   UNL     1     112.213 127.323 136.723  0.00  0.00    +0.000 OA
ATOM      2  O   UNL     1     114.065 125.968 137.794  0.00  0.00    +0.000 OA
ATOM      3  C   UNL     1     112.832 127.728 137.162  0.00  0.00    +0.000 C 
ATOM      4  C   UNL     1     113.461 127.271 137.526  0.00  0.00    +0.000 C 
ATOM      5  C   UNL     1     112.837 126.028 137.005  0.00  0.00    +0.000 A 
ATOM      6  C   UNL     1     113.464 126.415 137.447  0.00  0.00    +0.000 C 
ATOM      7  C   UNL     1     112.232 126.467 136.655  0.00  0.00    +0.000 A 
ATOM      8  C   UNL     1     112.844 125.206 136.933  0.00  0.00    +0.000 A 
ATOM      9  C   UNL     1     111.635 126.084 136.233  0.00  0.00    +0.000 A 
ATOM     10  C   UNL     1     112.248 124.824 136.511  0.00  0.00    +0.000 A 
ATOM     11  C   UNL     1     111.643 125.263 136.161  0.00  0.00    +0.000 A 
ENDROOT
BRANCH   3  12
ATOM     12  C   UNL     1     112.822 128.550 137.232  0.00  0.00    +0.000 A 
ATOM     13  C   UNL     1     113.270 129.014 136.718  0.00  0.00    +0.000 A 
ATOM     14  C   UNL     1     112.364 128.909 137.816  0.00  0.00    +0.000 A 
ATOM     15  C   UNL     1     113.261 129.835 136.787  0.00  0.00    +0.000 A 
ATOM     16  C   UNL     1     112.354 129.731 137.887  0.00  0.00    +0.000 A 
ATOM     17  C   UNL     1     112.802 130.194 137.373  0.00  0.00    +0.000 A 
BRANCH  13  18
ATOM     18  O   UNL     1     113.729 128.655 136.133  0.00  0.00    +0.000 OA
ATOM     19  C   UNL     1     113.685 128.920 135.353  0.00  0.00    +0.000 C 
ENDBRANCH  13  18
BRANCH  15  20
ATOM     20  O   UNL     1     113.710 130.299 136.273  0.00  0.00    +0.000 OA
ATOM     21  C   UNL     1     114.444 130.589 136.513  0.00  0.00    +0.000 C 
ENDBRANCH  15  20
BRANCH  16  22
ATOM     22  O   UNL     1     111.895 130.089 138.472  0.00  0.00    +0.000 OA
ATOM     23  C   UNL     1     111.691 129.668 139.151  0.00  0.00    +0.000 C 
ENDBRANCH  16  22
BRANCH  17  24
ATOM     24  O   UNL     1     112.792 131.015 137.443  0.00  0.00    +0.000 OA
ATOM     25  C   UNL     1     112.156 131.447 137.145  0.00  0.00    +0.000 C 
ENDBRANCH  17  24
ENDBRANCH   3  12
BRANCH   8  26
ATOM     26  O   UNL     1     113.449 124.767 137.283  0.00  0.00    +0.000 OA
ATOM     27  C   UNL     1     114.176 124.690 136.902  0.00  0.00    +0.000 C 
ENDBRANCH   8  26
BRANCH  10  28
ATOM     28  O   UNL     1     112.255 124.002 136.439  0.00  0.00    +0.000 OA
ATOM     29  C   UNL     1     111.836 123.536 136.975  0.00  0.00    +0.000 C 
ENDBRANCH  10  28
BRANCH  11  30
ATOM     30  O   UNL     1     111.046 124.880 135.739  0.00  0.00    +0.000 OA
ATOM     31  C   UNL     1     110.510 125.319 135.293  0.00  0.00    +0.000 C 
ENDBRANCH  11  30
TORSDOF 8
ENDMDL
MODEL 3
REMARK VINA RESULT:      -7.0      0.938      4.944
REMARK  Name = 14332451
REMARK  8 active torsions:
REMARK  status: ('A' for Active; 'I' for Inactive)
REMARK    1  A    between atoms: O_2  and  C_16
REMARK    2  A    between atoms: O_3  and  C_18
REMARK    3  A    between atoms: O_5  and  C_20
REMARK    4  A    between atoms: O_6  and  C_21
REMARK    5  A    between atoms: O_7  and  C_22
REMARK    6  A    between atoms: O_8  and  C_23
REMARK    7  A    between atoms: O_9  and  C_24
REMARK    8  A    between atoms: C_10  and  C_12
REMARK                            x       y       z     vdW  Elec       q    Type
REMARK                         _______ _______ _______ _____ _____    ______ ____
ROOT
ATOM      1  O   UNL     1     112.177 127.769 137.339  0.00  0.00    +0.000 OA
ATOM      2  O   UNL     1     113.723 129.001 135.756  0.00  0.00    +0.000 OA
ATOM      3  C   UNL     1     112.633 127.322 136.762  0.00  0.00    +0.000 C 
ATOM      4  C   UNL     1     113.158 127.738 136.224  0.00  0.00    +0.000 C 
ATOM      5  C   UNL     1     112.759 129.022 136.852  0.00  0.00    +0.000 A 
ATOM      6  C   UNL     1     113.221 128.594 136.269  0.00  0.00    +0.000 C 
ATOM      7  C   UNL     1     112.254 128.624 137.369  0.00  0.00    +0.000 A 
ATOM      8  C   UNL     1     112.823 129.844 136.892  0.00  0.00    +0.000 A 
ATOM      9  C   UNL     1     111.814 129.046 137.926  0.00  0.00    +0.000 A 
ATOM     10  C   UNL     1     112.384 130.267 137.447  0.00  0.00    +0.000 A 
ATOM     11  C   UNL     1     111.880 129.868 137.964  0.00  0.00    +0.000 A 
ENDROOT
BRANCH   3  12
ATOM     12  C   UNL     1     112.566 126.501 136.725  0.00  0.00    +0.000 A 
ATOM     13  C   UNL     1     113.108 126.025 137.125  0.00  0.00    +0.000 A 
ATOM     14  C   UNL     1     111.957 126.155 136.289  0.00  0.00    +0.000 A 
ATOM     15  C   UNL     1     113.042 125.203 137.089  0.00  0.00    +0.000 A 
ATOM     16  C   UNL     1     111.890 125.334 136.252  0.00  0.00    +0.000 A 
ATOM     17  C   UNL     1     112.432 124.857 136.652  0.00  0.00    +0.000 A 
BRANCH  13  18
ATOM     18  O   UNL     1     113.717 126.370 137.562  0.00  0.00    +0.000 OA
ATOM     19  C   UNL     1     113.851 126.135 138.341  0.00  0.00    +0.000 C 
ENDBRANCH  13  18
BRANCH  15  20
ATOM     20  O   UNL     1     113.584 124.727 137.489  0.00  0.00    +0.000 OA
ATOM     21  C   UNL     1     114.244 124.431 137.092  0.00  0.00    +0.000 C 
ENDBRANCH  15  20
BRANCH  16  22
ATOM     22  O   UNL     1     111.281 124.989 135.815  0.00  0.00    +0.000 OA
ATOM     23  C   UNL     1     110.789 125.460 135.349  0.00  0.00    +0.000 C 
ENDBRANCH  16  22
BRANCH  17  24
ATOM     24  O   UNL     1     112.366 124.037 136.615  0.00  0.00    +0.000 OA
ATOM     25  C   UNL     1     111.826 123.645 137.100  0.00  0.00    +0.000 C 
ENDBRANCH  17  24
ENDBRANCH   3  12
BRANCH   8  26
ATOM     26  O   UNL     1     113.328 130.243 136.375  0.00  0.00    +0.000 OA
ATOM     27  C   UNL     1     114.129 130.317 136.556  0.00  0.00    +0.000 C 
ENDBRANCH   8  26
BRANCH  10  28
ATOM     28  O   UNL     1     112.449 131.088 137.487  0.00  0.00    +0.000 OA
ATOM     29  C   UNL     1     111.881 131.565 137.126  0.00  0.00    +0.000 C 
ENDBRANCH  10  28
BRANCH  11  30
ATOM     30  O   UNL     1     111.440 130.291 138.520  0.00  0.00    +0.000 OA
ATOM     31  C   UNL     1     111.114 129.902 139.170  0.00  0.00    +0.000 C 
ENDBRANCH  11  30
TORSDOF 8
ENDMDL
MODEL 4
REMARK VINA RESULT:      -7.0      1.882      5.273
REMARK  Name = 14332451
REMARK  8 active torsions:
REMARK  status: ('A' for Active; 'I' for Inactive)
REMARK    1  A    between atoms: O_2  and  C_16
REMARK    2  A    between atoms: O_3  and  C_18
REMARK    3  A    between atoms: O_5  and  C_20
REMARK    4  A    between atoms: O_6  and  C_21
REMARK    5  A    between atoms: O_7  and  C_22
REMARK    6  A    between atoms: O_8  and  C_23
REMARK    7  A    between atoms: O_9  and  C_24
REMARK    8  A    between atoms: C_10  and  C_12
REMARK                            x       y       z     vdW  Elec       q    Type
REMARK                         _______ _______ _______ _____ _____    ______ ____
ROOT
ATOM      1  O   UNL     1     113.039 127.506 138.515  0.00  0.00    +0.000 OA
ATOM      2  O   UNL     1     113.106 127.065 141.008  0.00  0.00    +0.000 OA
ATOM      3  C   UNL     1     112.911 126.706 138.806  0.00  0.00    +0.000 C 
ATOM      4  C   UNL     1     112.933 126.554 139.651  0.00  0.00    +0.000 C 
ATOM      5  C   UNL     1     113.208 127.994 139.886  0.00  0.00    +0.000 A 
ATOM      6  C   UNL     1     113.083 127.203 140.195  0.00  0.00    +0.000 C 
ATOM      7  C   UNL     1     113.187 128.141 139.074  0.00  0.00    +0.000 A 
ATOM      8  C   UNL     1     113.351 128.613 140.413  0.00  0.00    +0.000 A 
ATOM      9  C   UNL     1     113.309 128.906 138.789  0.00  0.00    +0.000 A 
ATOM     10  C   UNL     1     113.473 129.378 140.128  0.00  0.00    +0.000 A 
ATOM     11  C   UNL     1     113.452 129.524 139.317  0.00  0.00    +0.000 A 
ENDROOT
BRANCH   3  12
ATOM     12  C   UNL     1     112.768 126.090 138.276  0.00  0.00    +0.000 A 
ATOM     13  C   UNL     1     112.001 125.943 138.012  0.00  0.00    +0.000 A 
ATOM     14  C   UNL     1     113.392 125.620 138.011  0.00  0.00    +0.000 A 
ATOM     15  C   UNL     1     111.857 125.327 137.483  0.00  0.00    +0.000 A 
ATOM     16  C   UNL     1     113.249 125.004 137.482  0.00  0.00    +0.000 A 
ATOM     17  C   UNL     1     112.482 124.857 137.218  0.00  0.00    +0.000 A 
BRANCH  13  18
ATOM     18  O   UNL     1     111.376 126.412 138.277  0.00  0.00    +0.000 OA
ATOM     19  C   UNL     1     110.698 126.061 138.589  0.00  0.00    +0.000 C 
ENDBRANCH  13  18
BRANCH  15  20
ATOM     20  O   UNL     1     111.089 125.180 137.219  0.00  0.00    +0.000 OA
ATOM     21  C   UNL     1     110.838 125.480 136.492  0.00  0.00    +0.000 C 
ENDBRANCH  15  20
BRANCH  16  22
ATOM     22  O   UNL     1     113.874 124.534 137.217  0.00  0.00    +0.000 OA
ATOM     23  C   UNL     1     114.645 124.827 137.232  0.00  0.00    +0.000 C 
ENDBRANCH  16  22
BRANCH  17  24
ATOM     24  O   UNL     1     112.338 124.241 136.689  0.00  0.00    +0.000 OA
ATOM     25  C   UNL     1     112.265 123.468 136.966  0.00  0.00    +0.000 C 
ENDBRANCH  17  24
ENDBRANCH   3  12
BRANCH   8  26
ATOM     26  O   UNL     1     113.373 128.467 141.224  0.00  0.00    +0.000 OA
ATOM     27  C   UNL     1     112.672 128.443 141.658  0.00  0.00    +0.000 C 
ENDBRANCH   8  26
BRANCH  10  28
ATOM     28  O   UNL     1     113.616 129.997 140.655  0.00  0.00    +0.000 OA
ATOM     29  C   UNL     1     114.387 130.256 140.787  0.00  0.00    +0.000 C 
ENDBRANCH  10  28
BRANCH  11  30
ATOM     30  O   UNL     1     113.574 130.289 139.032  0.00  0.00    +0.000 OA
ATOM     31  C   UNL     1     113.388 130.472 138.250  0.00  0.00    +0.000 C 
ENDBRANCH  11  30
TORSDOF 8
ENDMDL
MODEL 5
REMARK VINA RESULT:      -6.9      0.574      4.923
REMARK  Name = 14332451
REMARK  8 active torsions:
REMARK  status: ('A' for Active; 'I' for Inactive)
REMARK    1  A    between atoms: O_2  and  C_16
REMARK    2  A    between atoms: O_3  and  C_18
REMARK    3  A    between atoms: O_5  and  C_20
REMARK    4  A    between atoms: O_6  and  C_21
REMARK    5  A    between atoms: O_7  and  C_22
REMARK    6  A    between atoms: O_8  and  C_23
REMARK    7  A    between atoms: O_9  and  C_24
REMARK    8  A    between atoms: C_10  and  C_12
REMARK                            x       y       z     vdW  Elec       q    Type
REMARK                         _______ _______ _______ _____ _____    ______ ____
ROOT
ATOM      1  O   UNL     1     112.978 127.842 137.246  0.00  0.00    +0.000 OA
ATOM      2  O   UNL     1     113.813 128.899 135.102  0.00  0.00    +0.000 OA
ATOM      3  C   UNL     1     113.008 127.370 136.528  0.00  0.00    +0.000 C 
ATOM      4  C   UNL     1     113.291 127.726 135.799  0.00  0.00    +0.000 C 
ATOM      5  C   UNL     1     113.502 129.004 136.525  0.00  0.00    +0.000 A 
ATOM      6  C   UNL     1     113.540 128.549 135.798  0.00  0.00    +0.000 C 
ATOM      7  C   UNL     1     113.231 128.663 137.225  0.00  0.00    +0.000 A 
ATOM      8  C   UNL     1     113.743 129.794 136.518  0.00  0.00    +0.000 A 
ATOM      9  C   UNL     1     113.200 129.110 137.918  0.00  0.00    +0.000 A 
ATOM     10  C   UNL     1     113.711 130.241 137.210  0.00  0.00    +0.000 A 
ATOM     11  C   UNL     1     113.440 129.899 137.910  0.00  0.00    +0.000 A 
ENDROOT
BRANCH   3  12
ATOM     12  C   UNL     1     112.767 126.581 136.538  0.00  0.00    +0.000 A 
ATOM     13  C   UNL     1     111.989 126.385 136.349  0.00  0.00    +0.000 A 
ATOM     14  C   UNL     1     113.304 125.988 136.738  0.00  0.00    +0.000 A 
ATOM     15  C   UNL     1     111.747 125.597 136.359  0.00  0.00    +0.000 A 
ATOM     16  C   UNL     1     113.063 125.199 136.749  0.00  0.00    +0.000 A 
ATOM     17  C   UNL     1     112.285 125.003 136.559  0.00  0.00    +0.000 A 
BRANCH  13  18
ATOM     18  O   UNL     1     111.451 126.978 136.148  0.00  0.00    +0.000 OA
ATOM     19  C   UNL     1     110.713 127.008 136.515  0.00  0.00    +0.000 C 
ENDBRANCH  13  18
BRANCH  15  20
ATOM     20  O   UNL     1     110.968 125.401 136.169  0.00  0.00    +0.000 OA
ATOM     21  C   UNL     1     110.774 125.186 135.396  0.00  0.00    +0.000 C 
ENDBRANCH  15  20
BRANCH  16  22
ATOM     22  O   UNL     1     113.601 124.606 136.949  0.00  0.00    +0.000 OA
ATOM     23  C   UNL     1     114.397 124.792 137.060  0.00  0.00    +0.000 C 
ENDBRANCH  16  22
BRANCH  17  24
ATOM     24  O   UNL     1     112.044 124.215 136.569  0.00  0.00    +0.000 OA
ATOM     25  C   UNL     1     111.857 123.850 137.285  0.00  0.00    +0.000 C 
ENDBRANCH  17  24
ENDBRANCH   3  12
BRANCH   8  26
ATOM     26  O   UNL     1     114.014 130.136 135.818  0.00  0.00    +0.000 OA
ATOM     27  C   UNL     1     114.803 130.046 135.594  0.00  0.00    +0.000 C 
ENDBRANCH   8  26
BRANCH  10  28
ATOM     28  O   UNL     1     113.952 131.030 137.203  0.00  0.00    +0.000 OA
ATOM     29  C   UNL     1     113.399 131.629 137.077  0.00  0.00    +0.000 C 
ENDBRANCH  10  28
BRANCH  11  30
ATOM     30  O   UNL     1     113.409 130.347 138.603  0.00  0.00    +0.000 OA
ATOM     31  C   UNL     1     113.353 129.971 139.335  0.00  0.00    +0.000 C 
ENDBRANCH  11  30
TORSDOF 8
ENDMDL
MODEL 6
REMARK VINA RESULT:      -6.9      0.482      4.961
REMARK  Name = 14332451
REMARK  8 active torsions:
REMARK  status: ('A' for Active; 'I' for Inactive)
REMARK    1  A    between atoms: O_2  and  C_16
REMARK    2  A    between atoms: O_3  and  C_18
REMARK    3  A    between atoms: O_5  and  C_20
REMARK    4  A    between atoms: O_6  and  C_21
REMARK    5  A    between atoms: O_7  and  C_22
REMARK    6  A    between atoms: O_8  and  C_23
REMARK    7  A    between atoms: O_9  and  C_24
REMARK    8  A    between atoms: C_10  and  C_12
REMARK                            x       y       z     vdW  Elec       q    Type
REMARK                         _______ _______ _______ _____ _____    ______ ____
ROOT
ATOM      1  O   UNL     1     113.254 127.614 136.367  0.00  0.00    +0.000 OA
ATOM      2  O   UNL     1     112.759 128.752 138.574  0.00  0.00    +0.000 OA
ATOM      3  C   UNL     1     112.896 127.160 137.004  0.00  0.00    +0.000 C 
ATOM      4  C   UNL     1     112.727 127.544 137.754  0.00  0.00    +0.000 C 
ATOM      5  C   UNL     1     113.275 128.812 137.209  0.00  0.00    +0.000 A 
ATOM      6  C   UNL     1     112.918 128.376 137.857  0.00  0.00    +0.000 C 
ATOM      7  C   UNL     1     113.438 128.444 136.489  0.00  0.00    +0.000 A 
ATOM      8  C   UNL     1     113.456 129.610 137.314  0.00  0.00    +0.000 A 
ATOM      9  C   UNL     1     113.781 128.874 135.873  0.00  0.00    +0.000 A 
ATOM     10  C   UNL     1     113.799 130.040 136.699  0.00  0.00    +0.000 A 
ATOM     11  C   UNL     1     113.962 129.672 135.979  0.00  0.00    +0.000 A 
ENDROOT
BRANCH   3  12
ATOM     12  C   UNL     1     112.717 126.362 136.896  0.00  0.00    +0.000 A 
ATOM     13  C   UNL     1     111.979 126.142 136.600  0.00  0.00    +0.000 A 
ATOM     14  C   UNL     1     113.274 125.784 137.084  0.00  0.00    +0.000 A 
ATOM     15  C   UNL     1     111.798 125.345 136.492  0.00  0.00    +0.000 A 
ATOM     16  C   UNL     1     113.094 124.986 136.976  0.00  0.00    +0.000 A 
ATOM     17  C   UNL     1     112.356 124.766 136.680  0.00  0.00    +0.000 A 
BRANCH  13  18
ATOM     18  O   UNL     1     111.421 126.720 136.412  0.00  0.00    +0.000 OA
ATOM     19  C   UNL     1     110.650 126.659 136.698  0.00  0.00    +0.000 C 
ENDBRANCH  13  18
BRANCH  15  20
ATOM     20  O   UNL     1     111.060 125.125 136.195  0.00  0.00    +0.000 OA
ATOM     21  C   UNL     1     110.963 124.992 135.387  0.00  0.00    +0.000 C 
ENDBRANCH  15  20
BRANCH  16  22
ATOM     22  O   UNL     1     113.652 124.409 137.164  0.00  0.00    +0.000 OA
ATOM     23  C   UNL     1     114.449 124.612 137.236  0.00  0.00    +0.000 C 
ENDBRANCH  16  22
BRANCH  17  24
ATOM     24  O   UNL     1     112.176 123.969 136.572  0.00  0.00    +0.000 OA
ATOM     25  C   UNL     1     111.960 123.504 137.218  0.00  0.00    +0.000 C 
ENDBRANCH  17  24
ENDBRANCH   3  12
BRANCH   8  26
ATOM     26  O   UNL     1     113.294 129.979 138.034  0.00  0.00    +0.000 OA
ATOM     27  C   UNL     1     113.845 129.947 138.647  0.00  0.00    +0.000 C 
ENDBRANCH   8  26
BRANCH  10  28
ATOM     28  O   UNL     1     113.981 130.838 136.804  0.00  0.00    +0.000 OA
ATOM     29  C   UNL     1     113.459 131.418 136.538  0.00  0.00    +0.000 C 
ENDBRANCH  10  28
BRANCH  11  30
ATOM     30  O   UNL     1     114.305 130.102 135.364  0.00  0.00    +0.000 OA
ATOM     31  C   UNL     1     114.659 129.707 134.733  0.00  0.00    +0.000 C 
ENDBRANCH  11  30
TORSDOF 8
ENDMDL
MODEL 7
REMARK VINA RESULT:      -6.6      1.543      2.152
REMARK  Name = 14332451
REMARK  8 active torsions:
REMARK  status: ('A' for Active; 'I' for Inactive)
REMARK    1  A    between atoms: O_2  and  C_16
REMARK    2  A    between atoms: O_3  and  C_18
REMARK    3  A    between atoms: O_5  and  C_20
REMARK    4  A    between atoms: O_6  and  C_21
REMARK    5  A    between atoms: O_7  and  C_22
REMARK    6  A    between atoms: O_8  and  C_23
REMARK    7  A    between atoms: O_9  and  C_24
REMARK    8  A    between atoms: C_10  and  C_12
REMARK                            x       y       z     vdW  Elec       q    Type
REMARK                         _______ _______ _______ _____ _____    ______ ____
ROOT
ATOM      1  O   UNL     1     113.392 127.288 138.090  0.00  0.00    +0.000 OA
ATOM      2  O   UNL     1     110.927 126.711 138.078  0.00  0.00    +0.000 OA
ATOM      3  C   UNL     1     112.836 127.807 138.491  0.00  0.00    +0.000 C 
ATOM      4  C   UNL     1     111.999 127.614 138.489  0.00  0.00    +0.000 C 
ATOM      5  C   UNL     1     112.299 126.398 137.690  0.00  0.00    +0.000 A 
ATOM      6  C   UNL     1     111.729 126.904 138.085  0.00  0.00    +0.000 C 
ATOM      7  C   UNL     1     113.103 126.584 137.693  0.00  0.00    +0.000 A 
ATOM      8  C   UNL     1     112.035 125.718 137.305  0.00  0.00    +0.000 A 
ATOM      9  C   UNL     1     113.642 126.089 137.309  0.00  0.00    +0.000 A 
ATOM     10  C   UNL     1     112.572 125.224 136.922  0.00  0.00    +0.000 A 
ATOM     11  C   UNL     1     113.376 125.410 136.924  0.00  0.00    +0.000 A 
ENDROOT
BRANCH   3  12
ATOM     12  C   UNL     1     113.104 128.486 138.875  0.00  0.00    +0.000 A 
ATOM     13  C   UNL     1     113.244 128.471 139.688  0.00  0.00    +0.000 A 
ATOM     14  C   UNL     1     113.231 129.180 138.448  0.00  0.00    +0.000 A 
ATOM     15  C   UNL     1     113.512 129.150 140.073  0.00  0.00    +0.000 A 
ATOM     16  C   UNL     1     113.499 129.859 138.832  0.00  0.00    +0.000 A 
ATOM     17  C   UNL     1     113.640 129.844 139.645  0.00  0.00    +0.000 A 
BRANCH  13  18
ATOM     18  O   UNL     1     113.117 127.778 140.116  0.00  0.00    +0.000 OA
ATOM     19  C   UNL     1     113.702 127.492 140.623  0.00  0.00    +0.000 C 
ENDBRANCH  13  18
BRANCH  15  20
ATOM     20  O   UNL     1     113.653 129.135 140.886  0.00  0.00    +0.000 OA
ATOM     21  C   UNL     1     113.087 129.432 141.408  0.00  0.00    +0.000 C 
ENDBRANCH  15  20
BRANCH  16  22
ATOM     22  O   UNL     1     113.627 130.552 138.404  0.00  0.00    +0.000 OA
ATOM     23  C   UNL     1     113.244 130.667 137.682  0.00  0.00    +0.000 C 
ENDBRANCH  16  22
BRANCH  17  24
ATOM     24  O   UNL     1     113.907 130.522 140.029  0.00  0.00    +0.000 OA
ATOM     25  C   UNL     1     114.707 130.722 140.005  0.00  0.00    +0.000 C 
ENDBRANCH  17  24
ENDBRANCH   3  12
BRANCH   8  26
ATOM     26  O   UNL     1     111.231 125.532 137.303  0.00  0.00    +0.000 OA
ATOM     27  C   UNL     1     110.732 125.864 136.736  0.00  0.00    +0.000 C 
ENDBRANCH   8  26
BRANCH  10  28
ATOM     28  O   UNL     1     112.308 124.544 136.537  0.00  0.00    +0.000 OA
ATOM     29  C   UNL     1     112.356 123.812 136.912  0.00  0.00    +0.000 C 
ENDBRANCH  10  28
BRANCH  11  30
ATOM     30  O   UNL     1     113.915 124.916 136.541  0.00  0.00    +0.000 OA
ATOM     31  C   UNL     1     114.688 125.171 136.412  0.00  0.00    +0.000 C 
ENDBRANCH  11  30
TORSDOF 8
ENDMDL
MODEL 8
REMARK VINA RESULT:      -6.5     12.189     14.096
REMARK  Name = 14332451
REMARK  8 active torsions:
REMARK  status: ('A' for Active; 'I' for Inactive)
REMARK    1  A    between atoms: O_2  and  C_16
REMARK    2  A    between atoms: O_3  and  C_18
REMARK    3  A    between atoms: O_5  and  C_20
REMARK    4  A    between atoms: O_6  and  C_21
REMARK    5  A    between atoms: O_7  and  C_22
REMARK    6  A    between atoms: O_8  and  C_23
REMARK    7  A    between atoms: O_9  and  C_24
REMARK    8  A    between atoms: C_10  and  C_12
REMARK                            x       y       z     vdW  Elec       q    Type
REMARK                         _______ _______ _______ _____ _____    ______ ____
ROOT
ATOM      1  O   UNL     1     104.517 125.528 146.254  0.00  0.00    +0.000 OA
ATOM      2  O   UNL     1     106.313 125.006 147.961  0.00  0.00    +0.000 OA
ATOM      3  C   UNL     1     104.382 124.905 146.830  0.00  0.00    +0.000 C 
ATOM      4  C   UNL     1     104.989 124.725 147.410  0.00  0.00    +0.000 C 
ATOM      5  C   UNL     1     105.840 125.792 146.824  0.00  0.00    +0.000 A 
ATOM      6  C   UNL     1     105.724 125.172 147.407  0.00  0.00    +0.000 C 
ATOM      7  C   UNL     1     105.257 125.964 146.266  0.00  0.00    +0.000 A 
ATOM      8  C   UNL     1     106.547 126.217 146.825  0.00  0.00    +0.000 A 
ATOM      9  C   UNL     1     105.380 126.562 145.710  0.00  0.00    +0.000 A 
ATOM     10  C   UNL     1     106.671 126.814 146.270  0.00  0.00    +0.000 A 
ATOM     11  C   UNL     1     106.087 126.986 145.713  0.00  0.00    +0.000 A 
ENDROOT
BRANCH   3  12
ATOM     12  C   UNL     1     103.674 124.481 146.826  0.00  0.00    +0.000 A 
ATOM     13  C   UNL     1     103.090 124.648 147.384  0.00  0.00    +0.000 A 
ATOM     14  C   UNL     1     103.549 123.890 146.264  0.00  0.00    +0.000 A 
ATOM     15  C   UNL     1     102.382 124.225 147.381  0.00  0.00    +0.000 A 
ATOM     16  C   UNL     1     102.841 123.467 146.260  0.00  0.00    +0.000 A 
ATOM     17  C   UNL     1     102.257 123.634 146.818  0.00  0.00    +0.000 A 
BRANCH  13  18
ATOM     18  O   UNL     1     103.214 125.239 147.947  0.00  0.00    +0.000 OA
ATOM     19  C   UNL     1     102.645 125.825 148.063  0.00  0.00    +0.000 C 
ENDBRANCH  13  18
BRANCH  15  20
ATOM     20  O   UNL     1     101.798 124.392 147.940  0.00  0.00    +0.000 OA
ATOM     21  C   UNL     1     101.717 123.914 148.607  0.00  0.00    +0.000 C 
ENDBRANCH  15  20
BRANCH  16  22
ATOM     22  O   UNL     1     102.717 122.876 145.697  0.00  0.00    +0.000 OA
ATOM     23  C   UNL     1     103.282 122.740 145.111  0.00  0.00    +0.000 C 
ENDBRANCH  16  22
BRANCH  17  24
ATOM     24  O   UNL     1     101.550 123.211 146.815  0.00  0.00    +0.000 OA
ATOM     25  C   UNL     1     100.966 123.388 146.260  0.00  0.00    +0.000 C 
ENDBRANCH  17  24
ENDBRANCH   3  12
BRANCH   8  26
ATOM     26  O   UNL     1     107.131 126.045 147.382  0.00  0.00    +0.000 OA
ATOM     27  C   UNL     1     107.624 125.393 147.275  0.00  0.00    +0.000 C 
ENDBRANCH   8  26
BRANCH  10  28
ATOM     28  O   UNL     1     107.378 127.240 146.271  0.00  0.00    +0.000 OA
ATOM     29  C   UNL     1     107.390 128.019 146.541  0.00  0.00    +0.000 C 
ENDBRANCH  10  28
BRANCH  11  30
ATOM     30  O   UNL     1     106.211 127.584 145.157  0.00  0.00    +0.000 OA
ATOM     31  C   UNL     1     105.742 127.621 144.480  0.00  0.00    +0.000 C 
ENDBRANCH  11  30
TORSDOF 8
ENDMDL
