MODEL 1
REMARK VINA RESULT:     -11.0      0.000      0.000
REMARK  Name = 42607862
REMARK  10 active torsions:
REMARK  status: ('A' for Active; 'I' for Inactive)
REMARK    1  A    between atoms: O_1  and  C_20
REMARK    2  A    between atoms: O_1  and  C_21
REMARK    3  A    between atoms: O_3  and  C_24
REMARK    4  A    between atoms: O_3  and  C_29
REMARK    5  A    between atoms: O_8  and  C_26
REMARK    6  A    between atoms: O_8  and  C_34
REMARK    7  A    between atoms: C_18  and  C_24
REMARK    8  A    between atoms: C_27  and  C_32
REMARK    9  A    between atoms: C_28  and  C_33
REMARK   10  A    between atoms: C_40  and  C_43
REMARK                            x       y       z     vdW  Elec       q    Type
REMARK                         _______ _______ _______ _____ _____    ______ ____
ROOT
ATOM      1  O   UNL     1     106.050 129.178 142.182  0.00  0.00    +0.000 OA
ATOM      2  O   UNL     1     107.441 128.898 144.210  0.00  0.00    +0.000 OA
ATOM      3  O   UNL     1     108.016 129.761 142.927  0.00  0.00    +0.000 OA
ATOM      4  C   UNL     1     106.226 128.652 143.500  0.00  0.00    +0.000 C 
ATOM      5  C   UNL     1     106.977 128.991 143.534  0.00  0.00    +0.000 C 
ATOM      6  C   UNL     1     107.265 129.423 142.893  0.00  0.00    +0.000 C 
ATOM      7  C   UNL     1     105.762 128.746 142.824  0.00  0.00    +0.000 C 
ATOM      8  C   UNL     1     106.801 129.517 142.217  0.00  0.00    +0.000 C 
ENDROOT
BRANCH   8  10
ATOM      9  O   UNL     1     107.249 129.567 140.861  0.00  0.00    +0.000 OA
ATOM     10  C   UNL     1     107.088 129.948 141.576  0.00  0.00    +0.000 C 
ENDBRANCH   8  10
BRANCH   4  11
ATOM     11  O   UNL     1     105.938 128.221 144.141  0.00  0.00    +0.000 OA
BRANCH  11  17
ATOM     12  O   UNL     1     106.435 126.926 143.652  0.00  0.00    +0.000 OA
ATOM     13  O   UNL     1     106.655 125.465 144.907  0.00  0.00    +0.000 OA
ATOM     14  O   UNL     1     105.929 127.313 145.690  0.00  0.00    +0.000 OA
ATOM     15  C   UNL     1     106.428 126.251 144.804  0.00  0.00    +0.000 C 
ATOM     16  C   UNL     1     106.161 127.017 144.955  0.00  0.00    +0.000 C 
ATOM     17  C   UNL     1     106.165 127.434 144.244  0.00  0.00    +0.000 C 
ATOM     18  C   UNL     1     106.598 126.195 143.999  0.00  0.00    +0.000 C 
BRANCH  15  19
ATOM     19  C   UNL     1     106.337 126.061 145.602  0.00  0.00    +0.000 C 
BRANCH  19  20
ATOM     20  O   UNL     1     106.869 125.548 145.967  0.00  0.00    +0.000 OA
BRANCH  20  25
ATOM     21  O   UNL     1     105.999 125.072 147.053  0.00  0.00    +0.000 OA
ATOM     22  O   UNL     1     107.638 124.935 148.414  0.00  0.00    +0.000 OA
ATOM     23  O   UNL     1     108.104 125.364 147.256  0.00  0.00    +0.000 OA
ATOM     24  C   UNL     1     106.918 124.936 148.012  0.00  0.00    +0.000 C 
ATOM     25  C   UNL     1     106.730 125.291 146.738  0.00  0.00    +0.000 C 
ATOM     26  C   UNL     1     107.298 125.206 147.331  0.00  0.00    +0.000 C 
ATOM     27  C   UNL     1     106.115 124.853 147.841  0.00  0.00    +0.000 C 
BRANCH  24  29
ATOM     28  O   UNL     1     107.217 124.052 149.094  0.00  0.00    +0.000 OA
ATOM     29  C   UNL     1     106.780 124.679 148.783  0.00  0.00    +0.000 C 
ENDBRANCH  24  29
ENDBRANCH  20  25
ENDBRANCH  19  20
ENDBRANCH  15  19
ENDBRANCH  11  17
ENDBRANCH   4  11
BRANCH   7  30
ATOM     30  O   UNL     1     105.010 128.408 142.789  0.00  0.00    +0.000 OA
BRANCH  30  34
ATOM     31  O   UNL     1     103.006 130.378 142.028  0.00  0.00    +0.000 OA
ATOM     32  O   UNL     1     103.599 128.186 140.242  0.00  0.00    +0.000 OA
ATOM     33  O   UNL     1     102.613 129.180 139.898  0.00  0.00    +0.000 OA
ATOM     34  C   UNL     1     104.454 128.691 142.249  0.00  0.00    +0.000 A 
ATOM     35  C   UNL     1     104.008 129.405 142.424  0.00  0.00    +0.000 A 
ATOM     36  C   UNL     1     104.318 128.276 141.511  0.00  0.00    +0.000 A 
ATOM     37  C   UNL     1     103.432 129.693 141.856  0.00  0.00    +0.000 A 
ATOM     38  C   UNL     1     103.300 129.293 141.145  0.00  0.00    +0.000 A 
ATOM     39  C   UNL     1     103.737 128.579 140.955  0.00  0.00    +0.000 A 
ATOM     40  C   UNL     1     102.449 130.664 141.491  0.00  0.00    +0.000 C 
ATOM     41  C   UNL     1     102.318 130.265 140.780  0.00  0.00    +0.000 C 
ATOM     42  C   UNL     1     102.743 129.579 140.608  0.00  0.00    +0.000 C 
BRANCH  40  43
ATOM     43  C   UNL     1     102.023 131.350 141.663  0.00  0.00    +0.000 A 
ATOM     44  C   UNL     1     102.346 132.089 141.491  0.00  0.00    +0.000 A 
ATOM     45  C   UNL     1     101.275 131.295 142.007  0.00  0.00    +0.000 A 
ATOM     46  C   UNL     1     101.921 132.775 141.663  0.00  0.00    +0.000 A 
ATOM     47  C   UNL     1     100.850 131.981 142.179  0.00  0.00    +0.000 A 
ATOM     48  C   UNL     1     101.173 132.720 142.007  0.00  0.00    +0.000 A 
ENDBRANCH  40  43
ENDBRANCH  30  34
ENDBRANCH   7  30
TORSDOF 10
ENDMDL
MODEL 2
REMARK VINA RESULT:     -11.0      1.478      1.942
REMARK  Name = 42607862
REMARK  10 active torsions:
REMARK  status: ('A' for Active; 'I' for Inactive)
REMARK    1  A    between atoms: O_1  and  C_20
REMARK    2  A    between atoms: O_1  and  C_21
REMARK    3  A    between atoms: O_3  and  C_24
REMARK    4  A    between atoms: O_3  and  C_29
REMARK    5  A    between atoms: O_8  and  C_26
REMARK    6  A    between atoms: O_8  and  C_34
REMARK    7  A    between atoms: C_18  and  C_24
REMARK    8  A    between atoms: C_27  and  C_32
REMARK    9  A    between atoms: C_28  and  C_33
REMARK   10  A    between atoms: C_40  and  C_43
REMARK                            x       y       z     vdW  Elec       q    Type
REMARK                         _______ _______ _______ _____ _____    ______ ____
ROOT
ATOM      1  O   UNL     1     106.295 128.786 142.228  0.00  0.00    +0.000 OA
ATOM      2  O   UNL     1     107.735 126.830 142.702  0.00  0.00    +0.000 OA
ATOM      3  O   UNL     1     108.389 128.197 142.051  0.00  0.00    +0.000 OA
ATOM      4  C   UNL     1     106.448 127.449 142.712  0.00  0.00    +0.000 C 
ATOM      5  C   UNL     1     107.255 127.482 142.544  0.00  0.00    +0.000 C 
ATOM      6  C   UNL     1     107.582 128.165 142.218  0.00  0.00    +0.000 C 
ATOM      7  C   UNL     1     105.968 128.102 142.554  0.00  0.00    +0.000 C 
ATOM      8  C   UNL     1     107.102 128.817 142.060  0.00  0.00    +0.000 C 
ENDROOT
BRANCH   8  10
ATOM      9  O   UNL     1     107.237 129.722 140.962  0.00  0.00    +0.000 OA
ATOM     10  C   UNL     1     107.429 129.501 141.735  0.00  0.00    +0.000 C 
ENDBRANCH   8  10
BRANCH   4  11
ATOM     11  O   UNL     1     106.121 126.766 143.037  0.00  0.00    +0.000 OA
BRANCH  11  17
ATOM     12  O   UNL     1     106.539 127.117 144.402  0.00  0.00    +0.000 OA
ATOM     13  O   UNL     1     105.957 126.009 145.882  0.00  0.00    +0.000 OA
ATOM     14  O   UNL     1     105.310 125.437 143.930  0.00  0.00    +0.000 OA
ATOM     15  C   UNL     1     105.936 126.129 145.067  0.00  0.00    +0.000 C 
ATOM     16  C   UNL     1     105.769 126.036 144.263  0.00  0.00    +0.000 C 
ATOM     17  C   UNL     1     106.141 126.646 143.853  0.00  0.00    +0.000 C 
ATOM     18  C   UNL     1     106.412 126.797 145.152  0.00  0.00    +0.000 C 
BRANCH  15  19
ATOM     19  C   UNL     1     105.489 125.456 145.238  0.00  0.00    +0.000 C 
BRANCH  19  20
ATOM     20  O   UNL     1     105.117 125.384 145.970  0.00  0.00    +0.000 OA
BRANCH  20  25
ATOM     21  O   UNL     1     104.732 123.971 145.839  0.00  0.00    +0.000 OA
ATOM     22  O   UNL     1     103.003 124.246 147.060  0.00  0.00    +0.000 OA
ATOM     23  O   UNL     1     103.624 125.406 146.965  0.00  0.00    +0.000 OA
ATOM     24  C   UNL     1     103.621 123.988 146.579  0.00  0.00    +0.000 C 
ATOM     25  C   UNL     1     104.625 124.740 146.120  0.00  0.00    +0.000 C 
ATOM     26  C   UNL     1     103.938 124.749 146.577  0.00  0.00    +0.000 C 
ATOM     27  C   UNL     1     104.112 123.506 146.122  0.00  0.00    +0.000 C 
BRANCH  24  29
ATOM     28  O   UNL     1     102.312 123.418 146.637  0.00  0.00    +0.000 OA
ATOM     29  C   UNL     1     103.129 123.344 146.729  0.00  0.00    +0.000 C 
ENDBRANCH  24  29
ENDBRANCH  20  25
ENDBRANCH  19  20
ENDBRANCH  15  19
ENDBRANCH  11  17
ENDBRANCH   4  11
BRANCH   7  30
ATOM     30  O   UNL     1     105.161 128.071 142.721  0.00  0.00    +0.000 OA
BRANCH  30  34
ATOM     31  O   UNL     1     103.258 130.141 141.963  0.00  0.00    +0.000 OA
ATOM     32  O   UNL     1     103.714 127.905 140.190  0.00  0.00    +0.000 OA
ATOM     33  O   UNL     1     102.779 128.949 139.847  0.00  0.00    +0.000 OA
ATOM     34  C   UNL     1     104.615 128.380 142.185  0.00  0.00    +0.000 A 
ATOM     35  C   UNL     1     104.210 129.118 142.357  0.00  0.00    +0.000 A 
ATOM     36  C   UNL     1     104.449 127.966 141.451  0.00  0.00    +0.000 A 
ATOM     37  C   UNL     1     103.644 129.432 141.793  0.00  0.00    +0.000 A 
ATOM     38  C   UNL     1     103.484 129.035 141.087  0.00  0.00    +0.000 A 
ATOM     39  C   UNL     1     103.880 128.296 140.898  0.00  0.00    +0.000 A 
ATOM     40  C   UNL     1     102.712 130.452 141.428  0.00  0.00    +0.000 C 
ATOM     41  C   UNL     1     102.552 130.055 140.723  0.00  0.00    +0.000 C 
ATOM     42  C   UNL     1     102.938 129.346 140.552  0.00  0.00    +0.000 C 
BRANCH  40  43
ATOM     43  C   UNL     1     102.326 131.161 141.599  0.00  0.00    +0.000 A 
ATOM     44  C   UNL     1     102.685 131.881 141.415  0.00  0.00    +0.000 A 
ATOM     45  C   UNL     1     101.581 131.150 141.953  0.00  0.00    +0.000 A 
ATOM     46  C   UNL     1     102.300 132.590 141.585  0.00  0.00    +0.000 A 
ATOM     47  C   UNL     1     101.195 131.859 142.123  0.00  0.00    +0.000 A 
ATOM     48  C   UNL     1     101.555 132.579 141.939  0.00  0.00    +0.000 A 
ENDBRANCH  40  43
ENDBRANCH  30  34
ENDBRANCH   7  30
TORSDOF 10
ENDMDL
MODEL 3
REMARK VINA RESULT:     -10.8      3.432      6.690
REMARK  Name = 42607862
REMARK  10 active torsions:
REMARK  status: ('A' for Active; 'I' for Inactive)
REMARK    1  A    between atoms: O_1  and  C_20
REMARK    2  A    between atoms: O_1  and  C_21
REMARK    3  A    between atoms: O_3  and  C_24
REMARK    4  A    between atoms: O_3  and  C_29
REMARK    5  A    between atoms: O_8  and  C_26
REMARK    6  A    between atoms: O_8  and  C_34
REMARK    7  A    between atoms: C_18  and  C_24
REMARK    8  A    between atoms: C_27  and  C_32
REMARK    9  A    between atoms: C_28  and  C_33
REMARK   10  A    between atoms: C_40  and  C_43
REMARK                            x       y       z     vdW  Elec       q    Type
REMARK                         _______ _______ _______ _____ _____    ______ ____
ROOT
ATOM      1  O   UNL     1     106.999 127.142 145.470  0.00  0.00    +0.000 OA
ATOM      2  O   UNL     1     106.138 128.247 143.430  0.00  0.00    +0.000 OA
ATOM      3  O   UNL     1     106.882 129.140 144.601  0.00  0.00    +0.000 OA
ATOM      4  C   UNL     1     106.340 127.063 144.204  0.00  0.00    +0.000 C 
ATOM      5  C   UNL     1     106.425 127.879 144.110  0.00  0.00    +0.000 C 
ATOM      6  C   UNL     1     106.797 128.325 144.695  0.00  0.00    +0.000 C 
ATOM      7  C   UNL     1     106.627 126.695 144.884  0.00  0.00    +0.000 C 
ATOM      8  C   UNL     1     107.084 127.957 145.375  0.00  0.00    +0.000 C 
ENDROOT
BRANCH   8  10
ATOM      9  O   UNL     1     108.212 128.194 146.220  0.00  0.00    +0.000 OA
ATOM     10  C   UNL     1     107.456 128.403 145.961  0.00  0.00    +0.000 C 
ENDBRANCH   8  10
BRANCH   4  11
ATOM     11  O   UNL     1     105.968 126.617 143.619  0.00  0.00    +0.000 OA
BRANCH  11  17
ATOM     12  O   UNL     1     107.215 126.401 142.871  0.00  0.00    +0.000 OA
ATOM     13  O   UNL     1     107.134 125.571 141.121  0.00  0.00    +0.000 OA
ATOM     14  O   UNL     1     105.284 125.851 142.147  0.00  0.00    +0.000 OA
ATOM     15  C   UNL     1     106.706 125.832 141.775  0.00  0.00    +0.000 C 
ATOM     16  C   UNL     1     106.082 126.004 142.288  0.00  0.00    +0.000 C 
ATOM     17  C   UNL     1     106.396 126.356 142.964  0.00  0.00    +0.000 C 
ATOM     18  C   UNL     1     107.406 126.077 142.136  0.00  0.00    +0.000 C 
BRANCH  15  19
ATOM     19  C   UNL     1     106.173 125.518 141.230  0.00  0.00    +0.000 C 
BRANCH  19  20
ATOM     20  O   UNL     1     106.403 124.898 140.738  0.00  0.00    +0.000 OA
BRANCH  20  25
ATOM     21  O   UNL     1     105.467 125.094 139.621  0.00  0.00    +0.000 OA
ATOM     22  O   UNL     1     105.166 122.992 139.400  0.00  0.00    +0.000 OA
ATOM     23  O   UNL     1     106.016 123.180 140.391  0.00  0.00    +0.000 OA
ATOM     24  C   UNL     1     105.180 123.816 139.363  0.00  0.00    +0.000 C 
ATOM     25  C   UNL     1     105.892 124.625 140.151  0.00  0.00    +0.000 C 
ATOM     26  C   UNL     1     105.714 123.836 139.992  0.00  0.00    +0.000 C 
ATOM     27  C   UNL     1     105.027 124.594 139.133  0.00  0.00    +0.000 C 
BRANCH  24  29
ATOM     28  O   UNL     1     103.961 123.173 138.986  0.00  0.00    +0.000 OA
ATOM     29  C   UNL     1     104.668 123.543 138.776  0.00  0.00    +0.000 C 
ENDBRANCH  24  29
ENDBRANCH  20  25
ENDBRANCH  19  20
ENDBRANCH  15  19
ENDBRANCH  11  17
ENDBRANCH   4  11
BRANCH   7  30
ATOM     30  O   UNL     1     106.542 125.880 144.979  0.00  0.00    +0.000 OA
BRANCH  30  34
ATOM     31  O   UNL     1     104.212 125.114 146.548  0.00  0.00    +0.000 OA
ATOM     32  O   UNL     1     106.854 124.786 147.669  0.00  0.00    +0.000 OA
ATOM     33  O   UNL     1     105.678 124.417 148.417  0.00  0.00    +0.000 OA
ATOM     34  C   UNL     1     106.215 125.577 145.673  0.00  0.00    +0.000 A 
ATOM     35  C   UNL     1     105.362 125.501 145.752  0.00  0.00    +0.000 A 
ATOM     36  C   UNL     1     106.724 125.335 146.322  0.00  0.00    +0.000 A 
ATOM     37  C   UNL     1     105.031 125.184 146.478  0.00  0.00    +0.000 A 
ATOM     38  C   UNL     1     105.519 124.952 147.102  0.00  0.00    +0.000 A 
ATOM     39  C   UNL     1     106.374 125.021 147.040  0.00  0.00    +0.000 A 
ATOM     40  C   UNL     1     103.881 124.811 147.241  0.00  0.00    +0.000 C 
ATOM     41  C   UNL     1     104.370 124.579 147.865  0.00  0.00    +0.000 C 
ATOM     42  C   UNL     1     105.189 124.649 147.795  0.00  0.00    +0.000 C 
BRANCH  40  43
ATOM     43  C   UNL     1     103.062 124.740 147.311  0.00  0.00    +0.000 A 
ATOM     44  C   UNL     1     102.664 124.140 146.910  0.00  0.00    +0.000 A 
ATOM     45  C   UNL     1     102.641 125.270 147.783  0.00  0.00    +0.000 A 
ATOM     46  C   UNL     1     101.846 124.068 146.979  0.00  0.00    +0.000 A 
ATOM     47  C   UNL     1     101.822 125.199 147.854  0.00  0.00    +0.000 A 
ATOM     48  C   UNL     1     101.425 124.598 147.451  0.00  0.00    +0.000 A 
ENDBRANCH  40  43
ENDBRANCH  30  34
ENDBRANCH   7  30
TORSDOF 10
ENDMDL
MODEL 4
REMARK VINA RESULT:     -10.7      1.667      2.792
REMARK  Name = 42607862
REMARK  10 active torsions:
REMARK  status: ('A' for Active; 'I' for Inactive)
REMARK    1  A    between atoms: O_1  and  C_20
REMARK    2  A    between atoms: O_1  and  C_21
REMARK    3  A    between atoms: O_3  and  C_24
REMARK    4  A    between atoms: O_3  and  C_29
REMARK    5  A    between atoms: O_8  and  C_26
REMARK    6  A    between atoms: O_8  and  C_34
REMARK    7  A    between atoms: C_18  and  C_24
REMARK    8  A    between atoms: C_27  and  C_32
REMARK    9  A    between atoms: C_28  and  C_33
REMARK   10  A    between atoms: C_40  and  C_43
REMARK                            x       y       z     vdW  Elec       q    Type
REMARK                         _______ _______ _______ _____ _____    ______ ____
ROOT
ATOM      1  O   UNL     1     105.496 126.129 141.537  0.00  0.00    +0.000 OA
ATOM      2  O   UNL     1     106.939 124.318 142.410  0.00  0.00    +0.000 OA
ATOM      3  O   UNL     1     106.497 124.327 140.821  0.00  0.00    +0.000 OA
ATOM      4  C   UNL     1     106.198 125.521 142.623  0.00  0.00    +0.000 C 
ATOM      5  C   UNL     1     106.458 124.922 142.119  0.00  0.00    +0.000 C 
ATOM      6  C   UNL     1     106.237 124.926 141.325  0.00  0.00    +0.000 C 
ATOM      7  C   UNL     1     105.717 126.125 142.332  0.00  0.00    +0.000 C 
ATOM      8  C   UNL     1     105.756 125.530 141.034  0.00  0.00    +0.000 C 
ENDROOT
BRANCH   8  10
ATOM      9  O   UNL     1     104.745 125.657 140.032  0.00  0.00    +0.000 OA
ATOM     10  C   UNL     1     105.535 125.535 140.239  0.00  0.00    +0.000 C 
ENDBRANCH   8  10
BRANCH   4  11
ATOM     11  O   UNL     1     106.418 125.517 143.418  0.00  0.00    +0.000 OA
BRANCH  11  17
ATOM     12  O   UNL     1     105.361 124.565 143.788  0.00  0.00    +0.000 OA
ATOM     13  O   UNL     1     105.139 124.078 145.651  0.00  0.00    +0.000 OA
ATOM     14  O   UNL     1     106.695 125.464 145.191  0.00  0.00    +0.000 OA
ATOM     15  C   UNL     1     105.567 124.526 145.107  0.00  0.00    +0.000 C 
ATOM     16  C   UNL     1     106.118 125.044 144.777  0.00  0.00    +0.000 C 
ATOM     17  C   UNL     1     105.991 125.068 143.963  0.00  0.00    +0.000 C 
ATOM     18  C   UNL     1     105.099 124.230 144.495  0.00  0.00    +0.000 C 
BRANCH  15  19
ATOM     19  C   UNL     1     105.880 124.669 145.857  0.00  0.00    +0.000 C 
BRANCH  19  20
ATOM     20  O   UNL     1     105.440 124.484 146.529  0.00  0.00    +0.000 OA
BRANCH  20  25
ATOM     21  O   UNL     1     106.573 124.468 147.466  0.00  0.00    +0.000 OA
ATOM     22  O   UNL     1     105.322 124.993 149.114  0.00  0.00    +0.000 OA
ATOM     23  O   UNL     1     104.565 124.918 148.035  0.00  0.00    +0.000 OA
ATOM     24  C   UNL     1     105.922 124.791 148.586  0.00  0.00    +0.000 C 
ATOM     25  C   UNL     1     105.776 124.568 147.278  0.00  0.00    +0.000 C 
ATOM     26  C   UNL     1     105.374 124.768 147.970  0.00  0.00    +0.000 C 
ATOM     27  C   UNL     1     106.664 124.606 148.275  0.00  0.00    +0.000 C 
BRANCH  24  29
ATOM     28  O   UNL     1     106.479 125.623 149.605  0.00  0.00    +0.000 OA
ATOM     29  C   UNL     1     106.258 124.876 149.335  0.00  0.00    +0.000 C 
ENDBRANCH  24  29
ENDBRANCH  20  25
ENDBRANCH  19  20
ENDBRANCH  15  19
ENDBRANCH  11  17
ENDBRANCH   4  11
BRANCH   7  30
ATOM     30  O   UNL     1     105.457 126.724 142.835  0.00  0.00    +0.000 OA
BRANCH  30  34
ATOM     31  O   UNL     1     103.922 129.082 142.083  0.00  0.00    +0.000 OA
ATOM     32  O   UNL     1     106.807 129.156 141.948  0.00  0.00    +0.000 OA
ATOM     33  O   UNL     1     106.016 130.305 141.583  0.00  0.00    +0.000 OA
ATOM     34  C   UNL     1     105.428 127.504 142.568  0.00  0.00    +0.000 A 
ATOM     35  C   UNL     1     104.671 127.897 142.462  0.00  0.00    +0.000 A 
ATOM     36  C   UNL     1     106.154 127.928 142.395  0.00  0.00    +0.000 A 
ATOM     37  C   UNL     1     104.651 128.710 142.183  0.00  0.00    +0.000 A 
ATOM     38  C   UNL     1     105.349 129.118 142.016  0.00  0.00    +0.000 A 
ATOM     39  C   UNL     1     106.115 128.740 142.117  0.00  0.00    +0.000 A 
ATOM     40  C   UNL     1     103.891 129.862 141.816  0.00  0.00    +0.000 C 
ATOM     41  C   UNL     1     104.589 130.270 141.649  0.00  0.00    +0.000 C 
ATOM     42  C   UNL     1     105.318 129.898 141.749  0.00  0.00    +0.000 C 
BRANCH  40  43
ATOM     43  C   UNL     1     103.161 130.235 141.716  0.00  0.00    +0.000 A 
ATOM     44  C   UNL     1     102.879 130.751 142.294  0.00  0.00    +0.000 A 
ATOM     45  C   UNL     1     102.715 130.091 141.037  0.00  0.00    +0.000 A 
ATOM     46  C   UNL     1     102.150 131.124 142.194  0.00  0.00    +0.000 A 
ATOM     47  C   UNL     1     101.985 130.464 140.937  0.00  0.00    +0.000 A 
ATOM     48  C   UNL     1     101.704 130.980 141.516  0.00  0.00    +0.000 A 
ENDBRANCH  40  43
ENDBRANCH  30  34
ENDBRANCH   7  30
TORSDOF 10
ENDMDL
MODEL 5
REMARK VINA RESULT:     -10.6      7.011      9.966
REMARK  Name = 42607862
REMARK  10 active torsions:
REMARK  status: ('A' for Active; 'I' for Inactive)
REMARK    1  A    between atoms: O_1  and  C_20
REMARK    2  A    between atoms: O_1  and  C_21
REMARK    3  A    between atoms: O_3  and  C_24
REMARK    4  A    between atoms: O_3  and  C_29
REMARK    5  A    between atoms: O_8  and  C_26
REMARK    6  A    between atoms: O_8  and  C_34
REMARK    7  A    between atoms: C_18  and  C_24
REMARK    8  A    between atoms: C_27  and  C_32
REMARK    9  A    between atoms: C_28  and  C_33
REMARK   10  A    between atoms: C_40  and  C_43
REMARK                            x       y       z     vdW  Elec       q    Type
REMARK                         _______ _______ _______ _____ _____    ______ ____
ROOT
ATOM      1  O   UNL     1     110.641 129.651 136.451  0.00  0.00    +0.000 OA
ATOM      2  O   UNL     1     108.776 129.492 138.070  0.00  0.00    +0.000 OA
ATOM      3  O   UNL     1     108.465 129.491 136.450  0.00  0.00    +0.000 OA
ATOM      4  C   UNL     1     110.175 129.598 137.802  0.00  0.00    +0.000 C 
ATOM      5  C   UNL     1     109.398 129.545 137.530  0.00  0.00    +0.000 C 
ATOM      6  C   UNL     1     109.242 129.544 136.721  0.00  0.00    +0.000 C 
ATOM      7  C   UNL     1     110.797 129.651 137.262  0.00  0.00    +0.000 C 
ATOM      8  C   UNL     1     109.864 129.597 136.181  0.00  0.00    +0.000 C 
ENDROOT
BRANCH   8  10
ATOM      9  O   UNL     1     109.899 130.259 134.915  0.00  0.00    +0.000 OA
ATOM     10  C   UNL     1     109.709 129.597 135.371  0.00  0.00    +0.000 C 
ENDBRANCH   8  10
BRANCH   4  11
ATOM     11  O   UNL     1     110.331 129.598 138.611  0.00  0.00    +0.000 OA
BRANCH  11  17
ATOM     12  O   UNL     1     110.134 131.051 138.728  0.00  0.00    +0.000 OA
ATOM     13  O   UNL     1     110.275 131.885 140.472  0.00  0.00    +0.000 OA
ATOM     14  O   UNL     1     110.572 129.773 140.381  0.00  0.00    +0.000 OA
ATOM     15  C   UNL     1     110.314 131.181 140.045  0.00  0.00    +0.000 C 
ATOM     16  C   UNL     1     110.402 130.383 139.852  0.00  0.00    +0.000 C 
ATOM     17  C   UNL     1     110.291 130.302 139.039  0.00  0.00    +0.000 C 
ATOM     18  C   UNL     1     110.148 131.593 139.350  0.00  0.00    +0.000 C 
BRANCH  15  19
ATOM     19  C   UNL     1     110.460 131.006 140.838  0.00  0.00    +0.000 C 
BRANCH  19  20
ATOM     20  O   UNL     1     110.829 131.563 141.321  0.00  0.00    +0.000 OA
BRANCH  20  25
ATOM     21  O   UNL     1     110.315 131.125 142.628  0.00  0.00    +0.000 OA
ATOM     22  O   UNL     1     112.177 131.539 143.587  0.00  0.00    +0.000 OA
ATOM     23  O   UNL     1     112.301 131.843 142.309  0.00  0.00    +0.000 OA
ATOM     24  C   UNL     1     111.411 131.333 143.362  0.00  0.00    +0.000 C 
ATOM     25  C   UNL     1     110.904 131.421 142.130  0.00  0.00    +0.000 C 
ATOM     26  C   UNL     1     111.580 131.549 142.585  0.00  0.00    +0.000 C 
ATOM     27  C   UNL     1     110.629 131.071 143.390  0.00  0.00    +0.000 C 
BRANCH  24  29
ATOM     28  O   UNL     1     112.029 131.624 144.617  0.00  0.00    +0.000 OA
ATOM     29  C   UNL     1     111.486 131.191 144.172  0.00  0.00    +0.000 C 
ENDBRANCH  24  29
ENDBRANCH  20  25
ENDBRANCH  19  20
ENDBRANCH  15  19
ENDBRANCH  11  17
ENDBRANCH   4  11
BRANCH   7  30
ATOM     30  O   UNL     1     111.574 129.704 137.532  0.00  0.00    +0.000 OA
BRANCH  30  34
ATOM     31  O   UNL     1     112.999 127.215 137.030  0.00  0.00    +0.000 OA
ATOM     32  O   UNL     1     113.832 129.631 135.682  0.00  0.00    +0.000 OA
ATOM     33  O   UNL     1     114.514 128.380 135.457  0.00  0.00    +0.000 OA
ATOM     34  C   UNL     1     112.175 129.288 137.148  0.00  0.00    +0.000 A 
ATOM     35  C   UNL     1     112.277 128.447 137.292  0.00  0.00    +0.000 A 
ATOM     36  C   UNL     1     112.700 129.692 136.603  0.00  0.00    +0.000 A 
ATOM     37  C   UNL     1     112.905 128.022 136.888  0.00  0.00    +0.000 A 
ATOM     38  C   UNL     1     113.410 128.410 136.363  0.00  0.00    +0.000 A 
ATOM     39  C   UNL     1     113.322 129.251 136.208  0.00  0.00    +0.000 A 
ATOM     40  C   UNL     1     113.599 126.796 136.647  0.00  0.00    +0.000 C 
ATOM     41  C   UNL     1     114.104 127.184 136.122  0.00  0.00    +0.000 C 
ATOM     42  C   UNL     1     114.010 127.992 135.981  0.00  0.00    +0.000 C 
BRANCH  40  43
ATOM     43  C   UNL     1     113.693 125.989 136.789  0.00  0.00    +0.000 A 
ATOM     44  C   UNL     1     113.207 125.443 136.405  0.00  0.00    +0.000 A 
ATOM     45  C   UNL     1     114.273 125.727 137.314  0.00  0.00    +0.000 A 
ATOM     46  C   UNL     1     113.301 124.636 136.546  0.00  0.00    +0.000 A 
ATOM     47  C   UNL     1     114.367 124.920 137.456  0.00  0.00    +0.000 A 
ATOM     48  C   UNL     1     113.881 124.374 137.072  0.00  0.00    +0.000 A 
ENDBRANCH  40  43
ENDBRANCH  30  34
ENDBRANCH   7  30
TORSDOF 10
ENDMDL
MODEL 6
REMARK VINA RESULT:     -10.6      5.838      8.647
REMARK  Name = 42607862
REMARK  10 active torsions:
REMARK  status: ('A' for Active; 'I' for Inactive)
REMARK    1  A    between atoms: O_1  and  C_20
REMARK    2  A    between atoms: O_1  and  C_21
REMARK    3  A    between atoms: O_3  and  C_24
REMARK    4  A    between atoms: O_3  and  C_29
REMARK    5  A    between atoms: O_8  and  C_26
REMARK    6  A    between atoms: O_8  and  C_34
REMARK    7  A    between atoms: C_18  and  C_24
REMARK    8  A    between atoms: C_27  and  C_32
REMARK    9  A    between atoms: C_28  and  C_33
REMARK   10  A    between atoms: C_40  and  C_43
REMARK                            x       y       z     vdW  Elec       q    Type
REMARK                         _______ _______ _______ _____ _____    ______ ____
ROOT
ATOM      1  O   UNL     1     110.376 126.502 140.586  0.00  0.00    +0.000 OA
ATOM      2  O   UNL     1     108.316 127.078 141.830  0.00  0.00    +0.000 OA
ATOM      3  O   UNL     1     109.791 127.481 142.446  0.00  0.00    +0.000 OA
ATOM      4  C   UNL     1     108.951 126.492 140.692  0.00  0.00    +0.000 C 
ATOM      5  C   UNL     1     109.003 126.886 141.415  0.00  0.00    +0.000 C 
ATOM      6  C   UNL     1     109.740 127.088 141.723  0.00  0.00    +0.000 C 
ATOM      7  C   UNL     1     109.638 126.300 140.277  0.00  0.00    +0.000 C 
ATOM      8  C   UNL     1     110.427 126.896 141.309  0.00  0.00    +0.000 C 
ENDROOT
BRANCH   8  10
ATOM      9  O   UNL     1     111.756 126.524 141.680  0.00  0.00    +0.000 OA
ATOM     10  C   UNL     1     111.165 127.098 141.616  0.00  0.00    +0.000 C 
ENDBRANCH   8  10
BRANCH   4  11
ATOM     11  O   UNL     1     108.213 126.290 140.383  0.00  0.00    +0.000 OA
BRANCH  11  17
ATOM     12  O   UNL     1     108.158 125.027 141.134  0.00  0.00    +0.000 OA
ATOM     13  O   UNL     1     106.642 123.846 140.883  0.00  0.00    +0.000 OA
ATOM     14  O   UNL     1     106.652 125.661 139.760  0.00  0.00    +0.000 OA
ATOM     15  C   UNL     1     106.997 124.559 140.670  0.00  0.00    +0.000 C 
ATOM     16  C   UNL     1     107.141 125.288 140.310  0.00  0.00    +0.000 C 
ATOM     17  C   UNL     1     107.858 125.577 140.596  0.00  0.00    +0.000 C 
ATOM     18  C   UNL     1     107.626 124.399 141.179  0.00  0.00    +0.000 C 
BRANCH  15  19
ATOM     19  C   UNL     1     106.289 124.491 140.252  0.00  0.00    +0.000 C 
BRANCH  19  20
ATOM     20  O   UNL     1     105.839 123.803 140.312  0.00  0.00    +0.000 OA
BRANCH  20  25
ATOM     21  O   UNL     1     105.071 123.979 139.070  0.00  0.00    +0.000 OA
ATOM     22  O   UNL     1     103.382 122.950 139.874  0.00  0.00    +0.000 OA
ATOM     23  O   UNL     1     104.323 122.974 140.799  0.00  0.00    +0.000 OA
ATOM     24  C   UNL     1     103.944 123.362 139.432  0.00  0.00    +0.000 C 
ATOM     25  C   UNL     1     105.166 123.709 139.844  0.00  0.00    +0.000 C 
ATOM     26  C   UNL     1     104.469 123.328 140.067  0.00  0.00    +0.000 C 
ATOM     27  C   UNL     1     104.316 123.764 138.815  0.00  0.00    +0.000 C 
BRANCH  24  29
ATOM     28  O   UNL     1     102.539 123.534 139.236  0.00  0.00    +0.000 OA
ATOM     29  C   UNL     1     103.271 123.267 138.965  0.00  0.00    +0.000 C 
ENDBRANCH  24  29
ENDBRANCH  20  25
ENDBRANCH  19  20
ENDBRANCH  15  19
ENDBRANCH  11  17
ENDBRANCH   4  11
BRANCH   7  30
ATOM     30  O   UNL     1     109.587 125.907 139.554  0.00  0.00    +0.000 OA
BRANCH  30  34
ATOM     31  O   UNL     1     111.993 125.565 137.949  0.00  0.00    +0.000 OA
ATOM     32  O   UNL     1     110.124 127.667 137.287  0.00  0.00    +0.000 OA
ATOM     33  O   UNL     1     111.326 127.469 136.514  0.00  0.00    +0.000 OA
ATOM     34  C   UNL     1     110.065 126.139 138.923  0.00  0.00    +0.000 A 
ATOM     35  C   UNL     1     110.798 125.721 138.760  0.00  0.00    +0.000 A 
ATOM     36  C   UNL     1     109.834 126.799 138.425  0.00  0.00    +0.000 A 
ATOM     37  C   UNL     1     111.290 125.969 138.101  0.00  0.00    +0.000 A 
ATOM     38  C   UNL     1     111.068 126.604 137.622  0.00  0.00    +0.000 A 
ATOM     39  C   UNL     1     110.338 127.033 137.771  0.00  0.00    +0.000 A 
ATOM     40  C   UNL     1     112.473 125.795 137.318  0.00  0.00    +0.000 C 
ATOM     41  C   UNL     1     112.251 126.429 136.840  0.00  0.00    +0.000 C 
ATOM     42  C   UNL     1     111.548 126.834 136.992  0.00  0.00    +0.000 C 
BRANCH  40  43
ATOM     43  C   UNL     1     113.176 125.390 137.166  0.00  0.00    +0.000 A 
ATOM     44  C   UNL     1     113.183 124.762 136.631  0.00  0.00    +0.000 A 
ATOM     45  C   UNL     1     113.871 125.613 137.550  0.00  0.00    +0.000 A 
ATOM     46  C   UNL     1     113.885 124.358 136.478  0.00  0.00    +0.000 A 
ATOM     47  C   UNL     1     114.574 125.208 137.397  0.00  0.00    +0.000 A 
ATOM     48  C   UNL     1     114.580 124.580 136.861  0.00  0.00    +0.000 A 
ENDBRANCH  40  43
ENDBRANCH  30  34
ENDBRANCH   7  30
TORSDOF 10
ENDMDL
MODEL 7
REMARK VINA RESULT:     -10.5      5.268      7.642
REMARK  Name = 42607862
REMARK  10 active torsions:
REMARK  status: ('A' for Active; 'I' for Inactive)
REMARK    1  A    between atoms: O_1  and  C_20
REMARK    2  A    between atoms: O_1  and  C_21
REMARK    3  A    between atoms: O_3  and  C_24
REMARK    4  A    between atoms: O_3  and  C_29
REMARK    5  A    between atoms: O_8  and  C_26
REMARK    6  A    between atoms: O_8  and  C_34
REMARK    7  A    between atoms: C_18  and  C_24
REMARK    8  A    between atoms: C_27  and  C_32
REMARK    9  A    between atoms: C_28  and  C_33
REMARK   10  A    between atoms: C_40  and  C_43
REMARK                            x       y       z     vdW  Elec       q    Type
REMARK                         _______ _______ _______ _____ _____    ______ ____
ROOT
ATOM      1  O   UNL     1     106.716 126.457 141.270  0.00  0.00    +0.000 OA
ATOM      2  O   UNL     1     108.965 127.142 142.046  0.00  0.00    +0.000 OA
ATOM      3  O   UNL     1     107.619 127.840 142.696  0.00  0.00    +0.000 OA
ATOM      4  C   UNL     1     108.139 126.336 141.203  0.00  0.00    +0.000 C 
ATOM      5  C   UNL     1     108.215 126.914 141.787  0.00  0.00    +0.000 C 
ATOM      6  C   UNL     1     107.543 127.263 142.112  0.00  0.00    +0.000 C 
ATOM      7  C   UNL     1     107.390 126.108 140.944  0.00  0.00    +0.000 C 
ATOM      8  C   UNL     1     106.794 127.035 141.853  0.00  0.00    +0.000 C 
ENDROOT
BRANCH   8  10
ATOM      9  O   UNL     1     105.551 127.720 141.684  0.00  0.00    +0.000 OA
ATOM     10  C   UNL     1     106.120 127.384 142.178  0.00  0.00    +0.000 C 
ENDBRANCH   8  10
BRANCH   4  11
ATOM     11  O   UNL     1     108.811 125.987 140.878  0.00  0.00    +0.000 OA
BRANCH  11  17
ATOM     12  O   UNL     1     109.055 127.104 139.953  0.00  0.00    +0.000 OA
ATOM     13  O   UNL     1     110.384 126.901 138.557  0.00  0.00    +0.000 OA
ATOM     14  O   UNL     1     110.086 125.237 139.860  0.00  0.00    +0.000 OA
ATOM     15  C   UNL     1     110.003 126.546 139.196  0.00  0.00    +0.000 C 
ATOM     16  C   UNL     1     109.778 125.997 139.770  0.00  0.00    +0.000 C 
ATOM     17  C   UNL     1     109.193 126.341 140.238  0.00  0.00    +0.000 C 
ATOM     18  C   UNL     1     109.556 127.230 139.310  0.00  0.00    +0.000 C 
BRANCH  15  19
ATOM     19  C   UNL     1     110.546 126.005 138.891  0.00  0.00    +0.000 C 
BRANCH  19  20
ATOM     20  O   UNL     1     110.716 126.003 138.084  0.00  0.00    +0.000 OA
BRANCH  20  25
ATOM     21  O   UNL     1     112.008 125.305 138.160  0.00  0.00    +0.000 OA
ATOM     22  O   UNL     1     111.715 124.387 136.255  0.00  0.00    +0.000 OA
ATOM     23  O   UNL     1     110.661 125.138 136.512  0.00  0.00    +0.000 OA
ATOM     24  C   UNL     1     111.967 124.662 136.990  0.00  0.00    +0.000 C 
ATOM     25  C   UNL     1     111.298 125.499 137.787  0.00  0.00    +0.000 C 
ATOM     26  C   UNL     1     111.273 125.102 137.064  0.00  0.00    +0.000 C 
ATOM     27  C   UNL     1     112.422 124.787 137.668  0.00  0.00    +0.000 C 
BRANCH  24  29
ATOM     28  O   UNL     1     112.429 123.343 136.696  0.00  0.00    +0.000 OA
ATOM     29  C   UNL     1     112.549 124.159 136.693  0.00  0.00    +0.000 C 
ENDBRANCH  24  29
ENDBRANCH  20  25
ENDBRANCH  19  20
ENDBRANCH  15  19
ENDBRANCH  11  17
ENDBRANCH   4  11
BRANCH   7  30
ATOM     30  O   UNL     1     107.312 125.530 140.360  0.00  0.00    +0.000 OA
BRANCH  30  34
ATOM     31  O   UNL     1     104.939 124.302 139.202  0.00  0.00    +0.000 OA
ATOM     32  O   UNL     1     105.912 123.387 141.764  0.00  0.00    +0.000 OA
ATOM     33  O   UNL     1     104.740 122.801 141.161  0.00  0.00    +0.000 OA
ATOM     34  C   UNL     1     106.698 124.981 140.402  0.00  0.00    +0.000 A 
ATOM     35  C   UNL     1     106.124 124.926 139.765  0.00  0.00    +0.000 A 
ATOM     36  C   UNL     1     106.629 124.460 141.081  0.00  0.00    +0.000 A 
ATOM     37  C   UNL     1     105.488 124.351 139.816  0.00  0.00    +0.000 A 
ATOM     38  C   UNL     1     105.421 123.850 140.469  0.00  0.00    +0.000 A 
ATOM     39  C   UNL     1     105.987 123.891 141.115  0.00  0.00    +0.000 A 
ATOM     40  C   UNL     1     104.324 123.754 139.241  0.00  0.00    +0.000 C 
ATOM     41  C   UNL     1     104.257 123.253 139.894  0.00  0.00    +0.000 C 
ATOM     42  C   UNL     1     104.806 123.301 140.508  0.00  0.00    +0.000 C 
BRANCH  40  43
ATOM     43  C   UNL     1     103.776 123.705 138.627  0.00  0.00    +0.000 A 
ATOM     44  C   UNL     1     104.011 123.433 137.884  0.00  0.00    +0.000 A 
ATOM     45  C   UNL     1     102.992 123.929 138.755  0.00  0.00    +0.000 A 
ATOM     46  C   UNL     1     103.463 123.384 137.270  0.00  0.00    +0.000 A 
ATOM     47  C   UNL     1     102.443 123.880 138.141  0.00  0.00    +0.000 A 
ATOM     48  C   UNL     1     102.679 123.608 137.398  0.00  0.00    +0.000 A 
ENDBRANCH  40  43
ENDBRANCH  30  34
ENDBRANCH   7  30
TORSDOF 10
ENDMDL
MODEL 8
REMARK VINA RESULT:     -10.4      3.291      7.070
REMARK  Name = 42607862
REMARK  10 active torsions:
REMARK  status: ('A' for Active; 'I' for Inactive)
REMARK    1  A    between atoms: O_1  and  C_20
REMARK    2  A    between atoms: O_1  and  C_21
REMARK    3  A    between atoms: O_3  and  C_24
REMARK    4  A    between atoms: O_3  and  C_29
REMARK    5  A    between atoms: O_8  and  C_26
REMARK    6  A    between atoms: O_8  and  C_34
REMARK    7  A    between atoms: C_18  and  C_24
REMARK    8  A    between atoms: C_27  and  C_32
REMARK    9  A    between atoms: C_28  and  C_33
REMARK   10  A    between atoms: C_40  and  C_43
REMARK                            x       y       z     vdW  Elec       q    Type
REMARK                         _______ _______ _______ _____ _____    ______ ____
ROOT
ATOM      1  O   UNL     1     107.184 127.817 144.796  0.00  0.00    +0.000 OA
ATOM      2  O   UNL     1     106.819 128.525 142.452  0.00  0.00    +0.000 OA
ATOM      3  O   UNL     1     107.762 129.437 143.452  0.00  0.00    +0.000 OA
ATOM      4  C   UNL     1     106.590 127.597 143.514  0.00  0.00    +0.000 C 
ATOM      5  C   UNL     1     106.941 128.289 143.233  0.00  0.00    +0.000 C 
ATOM      6  C   UNL     1     107.412 128.745 143.733  0.00  0.00    +0.000 C 
ATOM      7  C   UNL     1     106.712 127.361 144.295  0.00  0.00    +0.000 C 
ATOM      8  C   UNL     1     107.534 128.509 144.514  0.00  0.00    +0.000 C 
ENDROOT
BRANCH   8  10
ATOM      9  O   UNL     1     108.679 128.635 145.359  0.00  0.00    +0.000 OA
ATOM     10  C   UNL     1     108.005 128.965 145.014  0.00  0.00    +0.000 C 
ENDBRANCH   8  10
BRANCH   4  11
ATOM     11  O   UNL     1     106.119 127.141 143.014  0.00  0.00    +0.000 OA
BRANCH  11  17
ATOM     12  O   UNL     1     107.263 126.383 142.487  0.00  0.00    +0.000 OA
ATOM     13  O   UNL     1     106.988 125.173 140.998  0.00  0.00    +0.000 OA
ATOM     14  O   UNL     1     105.280 126.239 141.708  0.00  0.00    +0.000 OA
ATOM     15  C   UNL     1     106.639 125.711 141.516  0.00  0.00    +0.000 C 
ATOM     16  C   UNL     1     106.082 126.187 141.896  0.00  0.00    +0.000 C 
ATOM     17  C   UNL     1     106.467 126.602 142.496  0.00  0.00    +0.000 C 
ATOM     18  C   UNL     1     107.369 125.833 141.881  0.00  0.00    +0.000 C 
BRANCH  15  19
ATOM     19  C   UNL     1     106.053 125.430 141.008  0.00  0.00    +0.000 C 
BRANCH  19  20
ATOM     20  O   UNL     1     106.192 124.758 140.551  0.00  0.00    +0.000 OA
BRANCH  20  25
ATOM     21  O   UNL     1     105.334 125.081 139.400  0.00  0.00    +0.000 OA
ATOM     22  O   UNL     1     104.760 123.040 139.154  0.00  0.00    +0.000 OA
ATOM     23  O   UNL     1     105.589 123.109 140.178  0.00  0.00    +0.000 OA
ATOM     24  C   UNL     1     104.887 123.854 139.123  0.00  0.00    +0.000 C 
ATOM     25  C   UNL     1     105.671 124.558 139.944  0.00  0.00    +0.000 C 
ATOM     26  C   UNL     1     105.394 123.800 139.772  0.00  0.00    +0.000 C 
ATOM     27  C   UNL     1     104.850 124.646 138.893  0.00  0.00    +0.000 C 
BRANCH  24  29
ATOM     28  O   UNL     1     103.619 123.352 138.696  0.00  0.00    +0.000 OA
ATOM     29  C   UNL     1     104.366 123.654 138.516  0.00  0.00    +0.000 C 
ENDBRANCH  24  29
ENDBRANCH  20  25
ENDBRANCH  19  20
ENDBRANCH  15  19
ENDBRANCH  11  17
ENDBRANCH   4  11
BRANCH   7  30
ATOM     30  O   UNL     1     106.362 126.669 144.577  0.00  0.00    +0.000 OA
BRANCH  30  34
ATOM     31  O   UNL     1     106.673 125.566 147.254  0.00  0.00    +0.000 OA
ATOM     32  O   UNL     1     104.560 127.465 146.731  0.00  0.00    +0.000 OA
ATOM     33  O   UNL     1     104.743 126.899 148.045  0.00  0.00    +0.000 OA
ATOM     34  C   UNL     1     106.118 126.620 145.363  0.00  0.00    +0.000 A 
ATOM     35  C   UNL     1     106.533 126.105 145.913  0.00  0.00    +0.000 A 
ATOM     36  C   UNL     1     105.449 127.082 145.637  0.00  0.00    +0.000 A 
ATOM     37  C   UNL     1     106.271 126.061 146.730  0.00  0.00    +0.000 A 
ATOM     38  C   UNL     1     105.628 126.505 146.994  0.00  0.00    +0.000 A 
ATOM     39  C   UNL     1     105.202 127.025 146.458  0.00  0.00    +0.000 A 
ATOM     40  C   UNL     1     106.431 125.515 148.041  0.00  0.00    +0.000 C 
ATOM     41  C   UNL     1     105.787 125.959 148.305  0.00  0.00    +0.000 C 
ATOM     42  C   UNL     1     105.386 126.454 147.781  0.00  0.00    +0.000 C 
BRANCH  40  43
ATOM     43  C   UNL     1     106.832 125.019 148.565  0.00  0.00    +0.000 A 
ATOM     44  C   UNL     1     106.409 124.522 149.069  0.00  0.00    +0.000 A 
ATOM     45  C   UNL     1     107.657 125.021 148.584  0.00  0.00    +0.000 A 
ATOM     46  C   UNL     1     106.809 124.027 149.593  0.00  0.00    +0.000 A 
ATOM     47  C   UNL     1     108.058 124.526 149.108  0.00  0.00    +0.000 A 
ATOM     48  C   UNL     1     107.634 124.029 149.612  0.00  0.00    +0.000 A 
ENDBRANCH  40  43
ENDBRANCH  30  34
ENDBRANCH   7  30
TORSDOF 10
ENDMDL
MODEL 9
REMARK VINA RESULT:     -10.3      6.127      8.775
REMARK  Name = 42607862
REMARK  10 active torsions:
REMARK  status: ('A' for Active; 'I' for Inactive)
REMARK    1  A    between atoms: O_1  and  C_20
REMARK    2  A    between atoms: O_1  and  C_21
REMARK    3  A    between atoms: O_3  and  C_24
REMARK    4  A    between atoms: O_3  and  C_29
REMARK    5  A    between atoms: O_8  and  C_26
REMARK    6  A    between atoms: O_8  and  C_34
REMARK    7  A    between atoms: C_18  and  C_24
REMARK    8  A    between atoms: C_27  and  C_32
REMARK    9  A    between atoms: C_28  and  C_33
REMARK   10  A    between atoms: C_40  and  C_43
REMARK                            x       y       z     vdW  Elec       q    Type
REMARK                         _______ _______ _______ _____ _____    ______ ____
ROOT
ATOM      1  O   UNL     1     112.210 127.856 140.264  0.00  0.00    +0.000 OA
ATOM      2  O   UNL     1     111.198 127.072 142.382  0.00  0.00    +0.000 OA
ATOM      3  O   UNL     1     112.322 128.278 142.402  0.00  0.00    +0.000 OA
ATOM      4  C   UNL     1     111.310 126.991 140.960  0.00  0.00    +0.000 C 
ATOM      5  C   UNL     1     111.536 127.333 141.676  0.00  0.00    +0.000 C 
ATOM      6  C   UNL     1     112.097 127.936 141.686  0.00  0.00    +0.000 C 
ATOM      7  C   UNL     1     111.647 127.252 140.254  0.00  0.00    +0.000 C 
ATOM      8  C   UNL     1     112.435 128.198 140.980  0.00  0.00    +0.000 C 
ENDROOT
BRANCH   8  10
ATOM      9  O   UNL     1     112.853 129.505 140.583  0.00  0.00    +0.000 OA
ATOM     10  C   UNL     1     112.997 128.802 140.990  0.00  0.00    +0.000 C 
ENDBRANCH   8  10
BRANCH   4  11
ATOM     11  O   UNL     1     110.748 126.387 140.950  0.00  0.00    +0.000 OA
BRANCH  11  17
ATOM     12  O   UNL     1     109.621 127.331 140.982  0.00  0.00    +0.000 OA
ATOM     13  O   UNL     1     107.811 126.638 140.980  0.00  0.00    +0.000 OA
ATOM     14  O   UNL     1     109.395 125.208 140.931  0.00  0.00    +0.000 OA
ATOM     15  C   UNL     1     108.614 126.454 140.968  0.00  0.00    +0.000 C 
ATOM     16  C   UNL     1     109.323 126.030 140.952  0.00  0.00    +0.000 C 
ATOM     17  C   UNL     1     109.944 126.571 140.961  0.00  0.00    +0.000 C 
ATOM     18  C   UNL     1     108.799 127.257 140.987  0.00  0.00    +0.000 C 
BRANCH  15  19
ATOM     19  C   UNL     1     108.190 125.746 140.954  0.00  0.00    +0.000 C 
BRANCH  19  20
ATOM     20  O   UNL     1     107.421 125.733 140.656  0.00  0.00    +0.000 OA
BRANCH  20  25
ATOM     21  O   UNL     1     106.986 124.505 141.338  0.00  0.00    +0.000 OA
ATOM     22  O   UNL     1     105.623 124.021 139.769  0.00  0.00    +0.000 OA
ATOM     23  O   UNL     1     106.224 125.151 139.451  0.00  0.00    +0.000 OA
ATOM     24  C   UNL     1     106.096 124.073 140.442  0.00  0.00    +0.000 C 
ATOM     25  C   UNL     1     106.969 125.046 140.715  0.00  0.00    +0.000 C 
ATOM     26  C   UNL     1     106.418 124.778 140.161  0.00  0.00    +0.000 C 
ATOM     27  C   UNL     1     106.447 123.903 141.169  0.00  0.00    +0.000 C 
BRANCH  24  29
ATOM     28  O   UNL     1     105.560 122.889 139.846  0.00  0.00    +0.000 OA
ATOM     29  C   UNL     1     105.643 123.386 140.500  0.00  0.00    +0.000 C 
ENDBRANCH  24  29
ENDBRANCH  20  25
ENDBRANCH  19  20
ENDBRANCH  15  19
ENDBRANCH  11  17
ENDBRANCH   4  11
BRANCH   7  30
ATOM     30  O   UNL     1     111.423 126.911 139.538  0.00  0.00    +0.000 OA
BRANCH  30  34
ATOM     31  O   UNL     1     112.651 127.860 137.074  0.00  0.00    +0.000 OA
ATOM     32  O   UNL     1     113.588 125.408 138.281  0.00  0.00    +0.000 OA
ATOM     33  O   UNL     1     114.173 125.908 137.061  0.00  0.00    +0.000 OA
ATOM     34  C   UNL     1     111.976 126.819 138.932  0.00  0.00    +0.000 A 
ATOM     35  C   UNL     1     112.027 127.402 138.302  0.00  0.00    +0.000 A 
ATOM     36  C   UNL     1     112.504 126.142 138.928  0.00  0.00    +0.000 A 
ATOM     37  C   UNL     1     112.606 127.298 137.676  0.00  0.00    +0.000 A 
ATOM     38  C   UNL     1     113.114 126.648 137.671  0.00  0.00    +0.000 A 
ATOM     39  C   UNL     1     113.077 126.056 138.293  0.00  0.00    +0.000 A 
ATOM     40  C   UNL     1     113.203 127.771 136.467  0.00  0.00    +0.000 C 
ATOM     41  C   UNL     1     113.711 127.121 136.462  0.00  0.00    +0.000 C 
ATOM     42  C   UNL     1     113.666 126.559 137.065  0.00  0.00    +0.000 C 
BRANCH  40  43
ATOM     43  C   UNL     1     113.248 128.333 135.864  0.00  0.00    +0.000 A 
ATOM     44  C   UNL     1     113.938 128.774 135.762  0.00  0.00    +0.000 A 
ATOM     45  C   UNL     1     112.603 128.455 135.364  0.00  0.00    +0.000 A 
ATOM     46  C   UNL     1     113.983 129.336 135.160  0.00  0.00    +0.000 A 
ATOM     47  C   UNL     1     112.648 129.016 134.762  0.00  0.00    +0.000 A 
ATOM     48  C   UNL     1     113.338 129.457 134.660  0.00  0.00    +0.000 A 
ENDBRANCH  40  43
ENDBRANCH  30  34
ENDBRANCH   7  30
TORSDOF 10
ENDMDL
MODEL 10
REMARK VINA RESULT:     -10.3      5.725      8.615
REMARK  Name = 42607862
REMARK  10 active torsions:
REMARK  status: ('A' for Active; 'I' for Inactive)
REMARK    1  A    between atoms: O_1  and  C_20
REMARK    2  A    between atoms: O_1  and  C_21
REMARK    3  A    between atoms: O_3  and  C_24
REMARK    4  A    between atoms: O_3  and  C_29
REMARK    5  A    between atoms: O_8  and  C_26
REMARK    6  A    between atoms: O_8  and  C_34
REMARK    7  A    between atoms: C_18  and  C_24
REMARK    8  A    between atoms: C_27  and  C_32
REMARK    9  A    between atoms: C_28  and  C_33
REMARK   10  A    between atoms: C_40  and  C_43
REMARK                            x       y       z     vdW  Elec       q    Type
REMARK                         _______ _______ _______ _____ _____    ______ ____
ROOT
ATOM      1  O   UNL     1     111.368 128.591 140.503  0.00  0.00    +0.000 OA
ATOM      2  O   UNL     1     110.829 127.219 142.491  0.00  0.00    +0.000 OA
ATOM      3  O   UNL     1     111.800 128.544 142.641  0.00  0.00    +0.000 OA
ATOM      4  C   UNL     1     110.702 127.471 141.090  0.00  0.00    +0.000 C 
ATOM      5  C   UNL     1     111.009 127.677 141.828  0.00  0.00    +0.000 C 
ATOM      6  C   UNL     1     111.494 128.339 141.903  0.00  0.00    +0.000 C 
ATOM      7  C   UNL     1     110.882 127.928 140.427  0.00  0.00    +0.000 C 
ATOM      8  C   UNL     1     111.674 128.796 141.241  0.00  0.00    +0.000 C 
ENDROOT
BRANCH   8  10
ATOM      9  O   UNL     1     111.877 130.203 141.097  0.00  0.00    +0.000 OA
ATOM     10  C   UNL     1     112.159 129.458 141.316  0.00  0.00    +0.000 C 
ENDBRANCH   8  10
BRANCH   4  11
ATOM     11  O   UNL     1     110.217 126.809 141.014  0.00  0.00    +0.000 OA
BRANCH  11  17
ATOM     12  O   UNL     1     109.009 127.554 141.399  0.00  0.00    +0.000 OA
ATOM     13  O   UNL     1     107.301 126.636 141.421  0.00  0.00    +0.000 OA
ATOM     14  O   UNL     1     109.010 125.490 140.852  0.00  0.00    +0.000 OA
ATOM     15  C   UNL     1     108.111 126.573 141.279  0.00  0.00    +0.000 C 
ATOM     16  C   UNL     1     108.852 126.267 141.082  0.00  0.00    +0.000 C 
ATOM     17  C   UNL     1     109.406 126.872 141.157  0.00  0.00    +0.000 C 
ATOM     18  C   UNL     1     108.208 127.368 141.474  0.00  0.00    +0.000 C 
BRANCH  15  19
ATOM     19  C   UNL     1     107.768 125.836 141.136  0.00  0.00    +0.000 C 
BRANCH  19  20
ATOM     20  O   UNL     1     107.006 125.789 140.826  0.00  0.00    +0.000 OA
BRANCH  20  25
ATOM     21  O   UNL     1     106.656 124.448 141.317  0.00  0.00    +0.000 OA
ATOM     22  O   UNL     1     105.501 124.023 139.573  0.00  0.00    +0.000 OA
ATOM     23  O   UNL     1     105.994 125.240 139.448  0.00  0.00    +0.000 OA
ATOM     24  C   UNL     1     105.904 124.040 140.292  0.00  0.00    +0.000 C 
ATOM     25  C   UNL     1     106.632 125.057 140.760  0.00  0.00    +0.000 C 
ATOM     26  C   UNL     1     106.167 124.804 140.127  0.00  0.00    +0.000 C 
ATOM     27  C   UNL     1     106.207 123.819 141.028  0.00  0.00    +0.000 C 
BRANCH  24  29
ATOM     28  O   UNL     1     105.234 123.060 139.497  0.00  0.00    +0.000 OA
ATOM     29  C   UNL     1     105.530 123.308 140.227  0.00  0.00    +0.000 C 
ENDBRANCH  24  29
ENDBRANCH  20  25
ENDBRANCH  19  20
ENDBRANCH  15  19
ENDBRANCH  11  17
ENDBRANCH   4  11
BRANCH   7  30
ATOM     30  O   UNL     1     110.576 127.724 139.689  0.00  0.00    +0.000 OA
BRANCH  30  34
ATOM     31  O   UNL     1     112.572 126.402 138.030  0.00  0.00    +0.000 OA
ATOM     32  O   UNL     1     111.594 129.014 137.276  0.00  0.00    +0.000 OA
ATOM     33  O   UNL     1     112.582 128.331 136.478  0.00  0.00    +0.000 OA
ATOM     34  C   UNL     1     111.066 127.720 139.025  0.00  0.00    +0.000 A 
ATOM     35  C   UNL     1     111.576 127.046 138.869  0.00  0.00    +0.000 A 
ATOM     36  C   UNL     1     111.070 128.389 138.487  0.00  0.00    +0.000 A 
ATOM     37  C   UNL     1     112.083 127.051 138.176  0.00  0.00    +0.000 A 
ATOM     38  C   UNL     1     112.087 127.694 137.658  0.00  0.00    +0.000 A 
ATOM     39  C   UNL     1     111.583 128.376 137.799  0.00  0.00    +0.000 A 
ATOM     40  C   UNL     1     113.063 126.396 137.367  0.00  0.00    +0.000 C 
ATOM     41  C   UNL     1     113.067 127.039 136.849  0.00  0.00    +0.000 C 
ATOM     42  C   UNL     1     112.578 127.688 136.995  0.00  0.00    +0.000 C 
BRANCH  40  43
ATOM     43  C   UNL     1     113.551 125.747 137.222  0.00  0.00    +0.000 A 
ATOM     44  C   UNL     1     114.271 125.675 137.617  0.00  0.00    +0.000 A 
ATOM     45  C   UNL     1     113.319 125.169 136.680  0.00  0.00    +0.000 A 
ATOM     46  C   UNL     1     114.759 125.027 137.472  0.00  0.00    +0.000 A 
ATOM     47  C   UNL     1     113.807 124.520 136.535  0.00  0.00    +0.000 A 
ATOM     48  C   UNL     1     114.527 124.449 136.931  0.00  0.00    +0.000 A 
ENDBRANCH  40  43
ENDBRANCH  30  34
ENDBRANCH   7  30
TORSDOF 10
ENDMDL
