MODEL 1
REMARK VINA RESULT:      -7.5      0.000      0.000
REMARK  Name = 
REMARK  3 active torsions:
REMARK  status: ('A' for Active; 'I' for Inactive)
REMARK    1  A    between atoms: C_8  and  C_11
REMARK    2  A    between atoms: C_12  and  O_21
REMARK    3  A    between atoms: C_13  and  O_23
REMARK                            x       y       z     vdW  Elec       q    Type
REMARK                         _______ _______ _______ _____ _____    ______ ____
ROOT
ATOM      1  C   UNL     1     112.360 123.917 136.785  0.00  0.00    +0.000 A 
ATOM      2  C   UNL     1     113.283 124.026 136.950  0.00  0.00    +0.000 A 
ATOM      3  C   UNL     1     113.676 124.882 136.881  0.00  0.00    +0.000 A 
ATOM      4  C   UNL     1     113.147 125.629 136.647  0.00  0.00    +0.000 A 
ATOM      5  C   UNL     1     112.224 125.519 136.483  0.00  0.00    +0.000 A 
ATOM      6  C   UNL     1     111.829 124.663 136.551  0.00  0.00    +0.000 A 
ATOM      7  C   UNL     1     113.540 126.484 136.579  0.00  0.00    +0.000 C 
ATOM      8  C   UNL     1     113.010 127.231 136.345  0.00  0.00    +0.000 C 
ATOM      9  C   UNL     1     112.087 127.121 136.181  0.00  0.00    +0.000 C 
ATOM     10  O   UNL     1     111.693 126.265 136.249  0.00  0.00    +0.000 OA
ATOM     11  O   UNL     1     114.463 126.594 136.743  0.00  0.00    +0.000 OA
ATOM     12  O   UNL     1     111.966 123.061 136.854  0.00  0.00    +0.000 OA
ATOM     13  O   UNL     1     114.600 124.992 137.046  0.00  0.00    +0.000 OA
ENDROOT
BRANCH   8  14
ATOM     14  C   UNL     1     113.404 128.086 136.276  0.00  0.00    +0.000 A 
ATOM     15  C   UNL     1     113.184 128.799 136.958  0.00  0.00    +0.000 A 
ATOM     16  C   UNL     1     113.604 129.714 136.885  0.00  0.00    +0.000 A 
ATOM     17  C   UNL     1     114.245 129.917 136.130  0.00  0.00    +0.000 A 
ATOM     18  C   UNL     1     114.464 129.204 135.449  0.00  0.00    +0.000 A 
ATOM     19  C   UNL     1     114.044 128.289 135.522  0.00  0.00    +0.000 A 
ATOM     20  O   UNL     1     114.638 130.773 136.061  0.00  0.00    +0.000 OA
BRANCH  15  21
ATOM     21  O   UNL     1     112.586 128.609 137.663  0.00  0.00    +0.000 OA
ATOM     22  C   UNL     1     113.074 128.563 139.050  0.00  0.00    +0.000 C 
ENDBRANCH  15  21
BRANCH  16  23
ATOM     23  O   UNL     1     113.399 130.380 137.521  0.00  0.00    +0.000 OA
ATOM     24  C   UNL     1     112.342 131.363 137.242  0.00  0.00    +0.000 C 
ENDBRANCH  16  23
ENDBRANCH   8  14
TORSDOF 3
ENDMDL
MODEL 2
REMARK VINA RESULT:      -7.5      2.050      3.298
REMARK  Name = 
REMARK  3 active torsions:
REMARK  status: ('A' for Active; 'I' for Inactive)
REMARK    1  A    between atoms: C_8  and  C_11
REMARK    2  A    between atoms: C_12  and  O_21
REMARK    3  A    between atoms: C_13  and  O_23
REMARK                            x       y       z     vdW  Elec       q    Type
REMARK                         _______ _______ _______ _____ _____    ______ ____
ROOT
ATOM      1  C   UNL     1     114.228 124.808 137.016  0.00  0.00    +0.000 A 
ATOM      2  C   UNL     1     113.454 124.268 137.002  0.00  0.00    +0.000 A 
ATOM      3  C   UNL     1     112.609 124.658 136.843  0.00  0.00    +0.000 A 
ATOM      4  C   UNL     1     112.538 125.589 136.698  0.00  0.00    +0.000 A 
ATOM      5  C   UNL     1     113.312 126.129 136.712  0.00  0.00    +0.000 A 
ATOM      6  C   UNL     1     114.158 125.739 136.871  0.00  0.00    +0.000 A 
ATOM      7  C   UNL     1     111.693 125.979 136.539  0.00  0.00    +0.000 C 
ATOM      8  C   UNL     1     111.622 126.910 136.395  0.00  0.00    +0.000 C 
ATOM      9  C   UNL     1     112.396 127.450 136.409  0.00  0.00    +0.000 C 
ATOM     10  O   UNL     1     113.242 127.060 136.568  0.00  0.00    +0.000 OA
ATOM     11  O   UNL     1     110.919 125.439 136.525  0.00  0.00    +0.000 OA
ATOM     12  O   UNL     1     115.074 124.418 137.175  0.00  0.00    +0.000 OA
ATOM     13  O   UNL     1     111.834 124.117 136.829  0.00  0.00    +0.000 OA
ENDROOT
BRANCH   8  14
ATOM     14  C   UNL     1     110.777 127.300 136.236  0.00  0.00    +0.000 A 
ATOM     15  C   UNL     1     110.349 127.883 136.941  0.00  0.00    +0.000 A 
ATOM     16  C   UNL     1     109.446 128.300 136.772  0.00  0.00    +0.000 A 
ATOM     17  C   UNL     1     108.969 128.135 135.897  0.00  0.00    +0.000 A 
ATOM     18  C   UNL     1     109.397 127.553 135.191  0.00  0.00    +0.000 A 
ATOM     19  C   UNL     1     110.301 127.135 135.361  0.00  0.00    +0.000 A 
ATOM     20  O   UNL     1     108.124 128.526 135.738  0.00  0.00    +0.000 OA
BRANCH  15  21
ATOM     21  O   UNL     1     110.795 128.037 137.760  0.00  0.00    +0.000 OA
ATOM     22  C   UNL     1     110.232 127.511 139.013  0.00  0.00    +0.000 C 
ENDBRANCH  15  21
BRANCH  16  23
ATOM     23  O   UNL     1     109.046 128.845 137.431  0.00  0.00    +0.000 OA
ATOM     24  C   UNL     1     109.139 130.309 137.331  0.00  0.00    +0.000 C 
ENDBRANCH  16  23
ENDBRANCH   8  14
TORSDOF 3
ENDMDL
MODEL 3
REMARK VINA RESULT:      -7.4     12.104     13.486
REMARK  Name = 
REMARK  3 active torsions:
REMARK  status: ('A' for Active; 'I' for Inactive)
REMARK    1  A    between atoms: C_8  and  C_11
REMARK    2  A    between atoms: C_12  and  O_21
REMARK    3  A    between atoms: C_13  and  O_23
REMARK                            x       y       z     vdW  Elec       q    Type
REMARK                         _______ _______ _______ _____ _____    ______ ____
ROOT
ATOM      1  C   UNL     1     101.617 123.307 146.296  0.00  0.00    +0.000 A 
ATOM      2  C   UNL     1     102.274 122.885 145.765  0.00  0.00    +0.000 A 
ATOM      3  C   UNL     1     103.175 123.161 145.821  0.00  0.00    +0.000 A 
ATOM      4  C   UNL     1     103.420 123.860 146.408  0.00  0.00    +0.000 A 
ATOM      5  C   UNL     1     102.763 124.282 146.939  0.00  0.00    +0.000 A 
ATOM      6  C   UNL     1     101.861 124.006 146.883  0.00  0.00    +0.000 A 
ATOM      7  C   UNL     1     104.321 124.136 146.464  0.00  0.00    +0.000 C 
ATOM      8  C   UNL     1     104.566 124.834 147.051  0.00  0.00    +0.000 C 
ATOM      9  C   UNL     1     103.909 125.256 147.582  0.00  0.00    +0.000 C 
ATOM     10  O   UNL     1     103.007 124.980 147.526  0.00  0.00    +0.000 OA
ATOM     11  O   UNL     1     104.978 123.714 145.933  0.00  0.00    +0.000 OA
ATOM     12  O   UNL     1     100.715 123.031 146.240  0.00  0.00    +0.000 OA
ATOM     13  O   UNL     1     103.833 122.739 145.290  0.00  0.00    +0.000 OA
ENDROOT
BRANCH   8  14
ATOM     14  C   UNL     1     105.467 125.111 147.107  0.00  0.00    +0.000 A 
ATOM     15  C   UNL     1     105.798 125.872 146.532  0.00  0.00    +0.000 A 
ATOM     16  C   UNL     1     106.762 126.168 146.591  0.00  0.00    +0.000 A 
ATOM     17  C   UNL     1     107.394 125.702 147.227  0.00  0.00    +0.000 A 
ATOM     18  C   UNL     1     107.063 124.941 147.802  0.00  0.00    +0.000 A 
ATOM     19  C   UNL     1     106.099 124.646 147.742  0.00  0.00    +0.000 A 
ATOM     20  O   UNL     1     108.296 125.979 147.283  0.00  0.00    +0.000 OA
BRANCH  15  21
ATOM     21  O   UNL     1     105.207 126.307 145.938  0.00  0.00    +0.000 OA
ATOM     22  C   UNL     1     105.559 126.441 144.516  0.00  0.00    +0.000 C 
ENDBRANCH  15  21
BRANCH  16  23
ATOM     23  O   UNL     1     107.071 126.879 146.054  0.00  0.00    +0.000 OA
ATOM     24  C   UNL     1     107.078 128.251 146.582  0.00  0.00    +0.000 C 
ENDBRANCH  16  23
ENDBRANCH   8  14
TORSDOF 3
ENDMDL
MODEL 4
REMARK VINA RESULT:      -7.3      3.082      5.753
REMARK  Name = 
REMARK  3 active torsions:
REMARK  status: ('A' for Active; 'I' for Inactive)
REMARK    1  A    between atoms: C_8  and  C_11
REMARK    2  A    between atoms: C_12  and  O_21
REMARK    3  A    between atoms: C_13  and  O_23
REMARK                            x       y       z     vdW  Elec       q    Type
REMARK                         _______ _______ _______ _____ _____    ______ ____
ROOT
ATOM      1  C   UNL     1     108.918 131.385 135.150  0.00  0.00    +0.000 A 
ATOM      2  C   UNL     1     108.289 130.830 135.583  0.00  0.00    +0.000 A 
ATOM      3  C   UNL     1     108.478 129.914 135.714  0.00  0.00    +0.000 A 
ATOM      4  C   UNL     1     109.296 129.552 135.411  0.00  0.00    +0.000 A 
ATOM      5  C   UNL     1     109.925 130.106 134.977  0.00  0.00    +0.000 A 
ATOM      6  C   UNL     1     109.737 131.023 134.846  0.00  0.00    +0.000 A 
ATOM      7  C   UNL     1     109.484 128.636 135.541  0.00  0.00    +0.000 C 
ATOM      8  C   UNL     1     110.302 128.274 135.238  0.00  0.00    +0.000 C 
ATOM      9  C   UNL     1     110.932 128.828 134.805  0.00  0.00    +0.000 C 
ATOM     10  O   UNL     1     110.744 129.745 134.674  0.00  0.00    +0.000 OA
ATOM     11  O   UNL     1     108.855 128.082 135.975  0.00  0.00    +0.000 OA
ATOM     12  O   UNL     1     108.730 132.301 135.019  0.00  0.00    +0.000 OA
ATOM     13  O   UNL     1     107.848 129.359 136.147  0.00  0.00    +0.000 OA
ENDROOT
BRANCH   8  14
ATOM     14  C   UNL     1     110.491 127.358 135.369  0.00  0.00    +0.000 A 
ATOM     15  C   UNL     1     111.155 127.075 136.076  0.00  0.00    +0.000 A 
ATOM     16  C   UNL     1     111.357 126.096 136.216  0.00  0.00    +0.000 A 
ATOM     17  C   UNL     1     110.895 125.399 135.649  0.00  0.00    +0.000 A 
ATOM     18  C   UNL     1     110.231 125.682 134.942  0.00  0.00    +0.000 A 
ATOM     19  C   UNL     1     110.029 126.662 134.802  0.00  0.00    +0.000 A 
ATOM     20  O   UNL     1     111.083 124.483 135.779  0.00  0.00    +0.000 OA
BRANCH  15  21
ATOM     21  O   UNL     1     111.586 127.727 136.606  0.00  0.00    +0.000 OA
ATOM     22  C   UNL     1     111.344 127.773 138.056  0.00  0.00    +0.000 C 
ENDBRANCH  15  21
BRANCH  16  23
ATOM     23  O   UNL     1     111.977 125.832 136.876  0.00  0.00    +0.000 OA
ATOM     24  C   UNL     1     113.359 125.504 136.497  0.00  0.00    +0.000 C 
ENDBRANCH  16  23
ENDBRANCH   8  14
TORSDOF 3
ENDMDL
MODEL 5
REMARK VINA RESULT:      -7.3      1.709      2.727
REMARK  Name = 
REMARK  3 active torsions:
REMARK  status: ('A' for Active; 'I' for Inactive)
REMARK    1  A    between atoms: C_8  and  C_11
REMARK    2  A    between atoms: C_12  and  O_21
REMARK    3  A    between atoms: C_13  and  O_23
REMARK                            x       y       z     vdW  Elec       q    Type
REMARK                         _______ _______ _______ _____ _____    ______ ____
ROOT
ATOM      1  C   UNL     1     112.187 123.875 136.675  0.00  0.00    +0.000 A 
ATOM      2  C   UNL     1     113.115 124.042 136.626  0.00  0.00    +0.000 A 
ATOM      3  C   UNL     1     113.501 124.719 137.159  0.00  0.00    +0.000 A 
ATOM      4  C   UNL     1     112.960 125.229 137.741  0.00  0.00    +0.000 A 
ATOM      5  C   UNL     1     112.032 125.062 137.790  0.00  0.00    +0.000 A 
ATOM      6  C   UNL     1     111.645 124.385 137.257  0.00  0.00    +0.000 A 
ATOM      7  C   UNL     1     113.346 125.906 138.274  0.00  0.00    +0.000 C 
ATOM      8  C   UNL     1     112.805 126.416 138.856  0.00  0.00    +0.000 C 
ATOM      9  C   UNL     1     111.877 126.249 138.905  0.00  0.00    +0.000 C 
ATOM     10  O   UNL     1     111.490 125.572 138.372  0.00  0.00    +0.000 OA
ATOM     11  O   UNL     1     114.274 126.073 138.226  0.00  0.00    +0.000 OA
ATOM     12  O   UNL     1     111.800 123.198 136.141  0.00  0.00    +0.000 OA
ATOM     13  O   UNL     1     114.430 124.886 137.111  0.00  0.00    +0.000 OA
ENDROOT
BRANCH   8  14
ATOM     14  C   UNL     1     113.191 127.093 139.390  0.00  0.00    +0.000 A 
ATOM     15  C   UNL     1     112.994 128.064 139.193  0.00  0.00    +0.000 A 
ATOM     16  C   UNL     1     113.407 128.788 139.763  0.00  0.00    +0.000 A 
ATOM     17  C   UNL     1     114.017 128.541 140.530  0.00  0.00    +0.000 A 
ATOM     18  C   UNL     1     114.214 127.570 140.726  0.00  0.00    +0.000 A 
ATOM     19  C   UNL     1     113.800 126.846 140.155  0.00  0.00    +0.000 A 
ATOM     20  O   UNL     1     114.403 129.218 141.063  0.00  0.00    +0.000 OA
BRANCH  15  21
ATOM     21  O   UNL     1     112.424 128.295 138.477  0.00  0.00    +0.000 OA
ATOM     22  C   UNL     1     112.966 128.992 137.300  0.00  0.00    +0.000 C 
ENDBRANCH  15  21
BRANCH  16  23
ATOM     23  O   UNL     1     113.223 129.696 139.580  0.00  0.00    +0.000 OA
ATOM     24  C   UNL     1     112.152 130.390 140.309  0.00  0.00    +0.000 C 
ENDBRANCH  16  23
ENDBRANCH   8  14
TORSDOF 3
ENDMDL
MODEL 6
REMARK VINA RESULT:      -7.1     10.622     12.134
REMARK  Name = 
REMARK  3 active torsions:
REMARK  status: ('A' for Active; 'I' for Inactive)
REMARK    1  A    between atoms: C_8  and  C_11
REMARK    2  A    between atoms: C_12  and  O_21
REMARK    3  A    between atoms: C_13  and  O_23
REMARK                            x       y       z     vdW  Elec       q    Type
REMARK                         _______ _______ _______ _____ _____    ______ ____
ROOT
ATOM      1  C   UNL     1     104.803 127.964 142.105  0.00  0.00    +0.000 A 
ATOM      2  C   UNL     1     104.777 128.418 142.932  0.00  0.00    +0.000 A 
ATOM      3  C   UNL     1     104.271 129.210 143.020  0.00  0.00    +0.000 A 
ATOM      4  C   UNL     1     103.791 129.549 142.281  0.00  0.00    +0.000 A 
ATOM      5  C   UNL     1     103.817 129.095 141.453  0.00  0.00    +0.000 A 
ATOM      6  C   UNL     1     104.323 128.302 141.365  0.00  0.00    +0.000 A 
ATOM      7  C   UNL     1     103.285 130.341 142.368  0.00  0.00    +0.000 C 
ATOM      8  C   UNL     1     102.805 130.680 141.629  0.00  0.00    +0.000 C 
ATOM      9  C   UNL     1     102.831 130.226 140.801  0.00  0.00    +0.000 C 
ATOM     10  O   UNL     1     103.337 129.433 140.713  0.00  0.00    +0.000 OA
ATOM     11  O   UNL     1     103.259 130.795 143.196  0.00  0.00    +0.000 OA
ATOM     12  O   UNL     1     105.310 127.171 142.017  0.00  0.00    +0.000 OA
ATOM     13  O   UNL     1     104.245 129.665 143.848  0.00  0.00    +0.000 OA
ENDROOT
BRANCH   8  14
ATOM     14  C   UNL     1     102.299 131.472 141.716  0.00  0.00    +0.000 A 
ATOM     15  C   UNL     1     102.727 132.368 141.531  0.00  0.00    +0.000 A 
ATOM     16  C   UNL     1     102.187 133.215 141.625  0.00  0.00    +0.000 A 
ATOM     17  C   UNL     1     101.217 133.168 141.904  0.00  0.00    +0.000 A 
ATOM     18  C   UNL     1     100.789 132.272 142.089  0.00  0.00    +0.000 A 
ATOM     19  C   UNL     1     101.330 131.424 141.995  0.00  0.00    +0.000 A 
ATOM     20  O   UNL     1     100.711 133.960 141.991  0.00  0.00    +0.000 OA
BRANCH  15  21
ATOM     21  O   UNL     1     103.634 132.413 141.270  0.00  0.00    +0.000 OA
ATOM     22  C   UNL     1     103.990 132.905 139.931  0.00  0.00    +0.000 C 
ENDBRANCH  15  21
BRANCH  16  23
ATOM     23  O   UNL     1     102.587 134.053 141.452  0.00  0.00    +0.000 OA
ATOM     24  C   UNL     1     103.054 134.889 142.567  0.00  0.00    +0.000 C 
ENDBRANCH  16  23
ENDBRANCH   8  14
TORSDOF 3
ENDMDL
MODEL 7
REMARK VINA RESULT:      -7.1      1.892      4.951
REMARK  Name = 
REMARK  3 active torsions:
REMARK  status: ('A' for Active; 'I' for Inactive)
REMARK    1  A    between atoms: C_8  and  C_11
REMARK    2  A    between atoms: C_12  and  O_21
REMARK    3  A    between atoms: C_13  and  O_23
REMARK                            x       y       z     vdW  Elec       q    Type
REMARK                         _______ _______ _______ _____ _____    ______ ____
ROOT
ATOM      1  C   UNL     1     113.625 129.893 140.493  0.00  0.00    +0.000 A 
ATOM      2  C   UNL     1     113.776 129.115 141.006  0.00  0.00    +0.000 A 
ATOM      3  C   UNL     1     113.708 128.264 140.603  0.00  0.00    +0.000 A 
ATOM      4  C   UNL     1     113.489 128.191 139.687  0.00  0.00    +0.000 A 
ATOM      5  C   UNL     1     113.338 128.969 139.174  0.00  0.00    +0.000 A 
ATOM      6  C   UNL     1     113.405 129.821 139.577  0.00  0.00    +0.000 A 
ATOM      7  C   UNL     1     113.422 127.339 139.284  0.00  0.00    +0.000 C 
ATOM      8  C   UNL     1     113.203 127.266 138.368  0.00  0.00    +0.000 C 
ATOM      9  C   UNL     1     113.051 128.044 137.855  0.00  0.00    +0.000 C 
ATOM     10  O   UNL     1     113.119 128.897 138.258  0.00  0.00    +0.000 OA
ATOM     11  O   UNL     1     113.573 126.561 139.796  0.00  0.00    +0.000 OA
ATOM     12  O   UNL     1     113.692 130.745 140.896  0.00  0.00    +0.000 OA
ATOM     13  O   UNL     1     113.860 127.485 141.116  0.00  0.00    +0.000 OA
ENDROOT
BRANCH   8  14
ATOM     14  C   UNL     1     113.135 126.415 137.965  0.00  0.00    +0.000 A 
ATOM     15  C   UNL     1     112.232 126.060 137.684  0.00  0.00    +0.000 A 
ATOM     16  C   UNL     1     112.160 125.150 137.253  0.00  0.00    +0.000 A 
ATOM     17  C   UNL     1     112.990 124.594 137.102  0.00  0.00    +0.000 A 
ATOM     18  C   UNL     1     113.893 124.950 137.383  0.00  0.00    +0.000 A 
ATOM     19  C   UNL     1     113.965 125.861 137.814  0.00  0.00    +0.000 A 
ATOM     20  O   UNL     1     112.922 123.743 136.699  0.00  0.00    +0.000 OA
BRANCH  15  21
ATOM     21  O   UNL     1     111.456 126.579 137.825  0.00  0.00    +0.000 OA
ATOM     22  C   UNL     1     110.431 126.124 138.777  0.00  0.00    +0.000 C 
ENDBRANCH  15  21
BRANCH  16  23
ATOM     23  O   UNL     1     111.316 124.817 136.991  0.00  0.00    +0.000 OA
ATOM     24  C   UNL     1     110.822 125.059 135.627  0.00  0.00    +0.000 C 
ENDBRANCH  16  23
ENDBRANCH   8  14
TORSDOF 3
ENDMDL
MODEL 8
REMARK VINA RESULT:      -7.1     10.400     11.882
REMARK  Name = 
REMARK  3 active torsions:
REMARK  status: ('A' for Active; 'I' for Inactive)
REMARK    1  A    between atoms: C_8  and  C_11
REMARK    2  A    between atoms: C_12  and  O_21
REMARK    3  A    between atoms: C_13  and  O_23
REMARK                            x       y       z     vdW  Elec       q    Type
REMARK                         _______ _______ _______ _____ _____    ______ ____
ROOT
ATOM      1  C   UNL     1     106.897 124.348 148.802  0.00  0.00    +0.000 A 
ATOM      2  C   UNL     1     107.641 124.826 148.471  0.00  0.00    +0.000 A 
ATOM      3  C   UNL     1     107.563 125.327 147.674  0.00  0.00    +0.000 A 
ATOM      4  C   UNL     1     106.742 125.350 147.209  0.00  0.00    +0.000 A 
ATOM      5  C   UNL     1     105.998 124.872 147.540  0.00  0.00    +0.000 A 
ATOM      6  C   UNL     1     106.075 124.371 148.337  0.00  0.00    +0.000 A 
ATOM      7  C   UNL     1     106.664 125.851 146.412  0.00  0.00    +0.000 C 
ATOM      8  C   UNL     1     105.843 125.874 145.947  0.00  0.00    +0.000 C 
ATOM      9  C   UNL     1     105.099 125.397 146.278  0.00  0.00    +0.000 C 
ATOM     10  O   UNL     1     105.176 124.895 147.075  0.00  0.00    +0.000 OA
ATOM     11  O   UNL     1     107.408 126.329 146.081  0.00  0.00    +0.000 OA
ATOM     12  O   UNL     1     106.974 123.846 149.600  0.00  0.00    +0.000 OA
ATOM     13  O   UNL     1     108.308 125.805 147.343  0.00  0.00    +0.000 OA
ENDROOT
BRANCH   8  14
ATOM     14  C   UNL     1     105.765 126.375 145.150  0.00  0.00    +0.000 A 
ATOM     15  C   UNL     1     105.971 125.944 144.260  0.00  0.00    +0.000 A 
ATOM     16  C   UNL     1     105.888 126.479 143.409  0.00  0.00    +0.000 A 
ATOM     17  C   UNL     1     105.599 127.446 143.446  0.00  0.00    +0.000 A 
ATOM     18  C   UNL     1     105.392 127.878 144.336  0.00  0.00    +0.000 A 
ATOM     19  C   UNL     1     105.475 127.342 145.188  0.00  0.00    +0.000 A 
ATOM     20  O   UNL     1     105.521 127.948 142.649  0.00  0.00    +0.000 OA
BRANCH  15  21
ATOM     21  O   UNL     1     106.242 125.040 144.226  0.00  0.00    +0.000 OA
ATOM     22  C   UNL     1     105.364 124.033 143.611  0.00  0.00    +0.000 C 
ENDBRANCH  15  21
BRANCH  16  23
ATOM     23  O   UNL     1     106.082 126.076 142.577  0.00  0.00    +0.000 OA
ATOM     24  C   UNL     1     107.375 126.324 141.923  0.00  0.00    +0.000 C 
ENDBRANCH  16  23
ENDBRANCH   8  14
TORSDOF 3
ENDMDL
MODEL 9
REMARK VINA RESULT:      -7.1      1.758      2.391
REMARK  Name = 
REMARK  3 active torsions:
REMARK  status: ('A' for Active; 'I' for Inactive)
REMARK    1  A    between atoms: C_8  and  C_11
REMARK    2  A    between atoms: C_12  and  O_21
REMARK    3  A    between atoms: C_13  and  O_23
REMARK                            x       y       z     vdW  Elec       q    Type
REMARK                         _______ _______ _______ _____ _____    ______ ____
ROOT
ATOM      1  C   UNL     1     110.010 126.069 134.983  0.00  0.00    +0.000 A 
ATOM      2  C   UNL     1     110.695 125.718 135.529  0.00  0.00    +0.000 A 
ATOM      3  C   UNL     1     111.431 126.260 135.770  0.00  0.00    +0.000 A 
ATOM      4  C   UNL     1     111.480 127.152 135.464  0.00  0.00    +0.000 A 
ATOM      5  C   UNL     1     110.794 127.503 134.918  0.00  0.00    +0.000 A 
ATOM      6  C   UNL     1     110.058 126.961 134.677  0.00  0.00    +0.000 A 
ATOM      7  C   UNL     1     112.215 127.694 135.705  0.00  0.00    +0.000 C 
ATOM      8  C   UNL     1     112.265 128.586 135.399  0.00  0.00    +0.000 C 
ATOM      9  C   UNL     1     111.579 128.937 134.853  0.00  0.00    +0.000 C 
ATOM     10  O   UNL     1     110.843 128.395 134.612  0.00  0.00    +0.000 OA
ATOM     11  O   UNL     1     112.901 127.344 136.251  0.00  0.00    +0.000 OA
ATOM     12  O   UNL     1     109.274 125.527 134.742  0.00  0.00    +0.000 OA
ATOM     13  O   UNL     1     112.117 125.909 136.316  0.00  0.00    +0.000 OA
ENDROOT
BRANCH   8  14
ATOM     14  C   UNL     1     113.000 129.128 135.640  0.00  0.00    +0.000 A 
ATOM     15  C   UNL     1     112.924 129.764 136.420  0.00  0.00    +0.000 A 
ATOM     16  C   UNL     1     113.710 130.344 136.678  0.00  0.00    +0.000 A 
ATOM     17  C   UNL     1     114.572 130.287 136.155  0.00  0.00    +0.000 A 
ATOM     18  C   UNL     1     114.648 129.651 135.374  0.00  0.00    +0.000 A 
ATOM     19  C   UNL     1     113.861 129.071 135.116  0.00  0.00    +0.000 A 
ATOM     20  O   UNL     1     115.307 130.829 136.395  0.00  0.00    +0.000 OA
BRANCH  15  21
ATOM     21  O   UNL     1     112.118 129.817 136.910  0.00  0.00    +0.000 OA
ATOM     22  C   UNL     1     111.314 131.048 136.870  0.00  0.00    +0.000 C 
ENDBRANCH  15  21
BRANCH  16  23
ATOM     23  O   UNL     1     113.639 130.938 137.408  0.00  0.00    +0.000 OA
ATOM     24  C   UNL     1     114.147 130.544 138.729  0.00  0.00    +0.000 C 
ENDBRANCH  16  23
ENDBRANCH   8  14
TORSDOF 3
ENDMDL
MODEL 10
REMARK VINA RESULT:      -6.9      2.382      3.362
REMARK  Name = 
REMARK  3 active torsions:
REMARK  status: ('A' for Active; 'I' for Inactive)
REMARK    1  A    between atoms: C_8  and  C_11
REMARK    2  A    between atoms: C_12  and  O_21
REMARK    3  A    between atoms: C_13  and  O_23
REMARK                            x       y       z     vdW  Elec       q    Type
REMARK                         _______ _______ _______ _____ _____    ______ ____
ROOT
ATOM      1  C   UNL     1     111.782 124.021 136.927  0.00  0.00    +0.000 A 
ATOM      2  C   UNL     1     111.529 124.476 137.715  0.00  0.00    +0.000 A 
ATOM      3  C   UNL     1     111.115 125.323 137.658  0.00  0.00    +0.000 A 
ATOM      4  C   UNL     1     110.954 125.715 136.814  0.00  0.00    +0.000 A 
ATOM      5  C   UNL     1     111.207 125.260 136.026  0.00  0.00    +0.000 A 
ATOM      6  C   UNL     1     111.622 124.413 136.082  0.00  0.00    +0.000 A 
ATOM      7  C   UNL     1     110.540 126.562 136.757  0.00  0.00    +0.000 C 
ATOM      8  C   UNL     1     110.380 126.954 135.913  0.00  0.00    +0.000 C 
ATOM      9  C   UNL     1     110.633 126.499 135.126  0.00  0.00    +0.000 C 
ATOM     10  O   UNL     1     111.047 125.652 135.182  0.00  0.00    +0.000 OA
ATOM     11  O   UNL     1     110.287 127.017 137.545  0.00  0.00    +0.000 OA
ATOM     12  O   UNL     1     112.196 123.174 136.983  0.00  0.00    +0.000 OA
ATOM     13  O   UNL     1     110.861 125.779 138.446  0.00  0.00    +0.000 OA
ENDROOT
BRANCH   8  14
ATOM     14  C   UNL     1     109.966 127.801 135.857  0.00  0.00    +0.000 A 
ATOM     15  C   UNL     1     110.531 128.638 135.821  0.00  0.00    +0.000 A 
ATOM     16  C   UNL     1     110.089 129.543 135.760  0.00  0.00    +0.000 A 
ATOM     17  C   UNL     1     109.081 129.613 135.735  0.00  0.00    +0.000 A 
ATOM     18  C   UNL     1     108.516 128.777 135.771  0.00  0.00    +0.000 A 
ATOM     19  C   UNL     1     108.959 127.870 135.832  0.00  0.00    +0.000 A 
ATOM     20  O   UNL     1     108.667 130.460 135.679  0.00  0.00    +0.000 OA
BRANCH  15  21
ATOM     21  O   UNL     1     111.473 128.573 135.844  0.00  0.00    +0.000 OA
ATOM     22  C   UNL     1     112.266 128.972 134.672  0.00  0.00    +0.000 C 
ENDBRANCH  15  21
BRANCH  16  23
ATOM     23  O   UNL     1     110.617 130.325 135.727  0.00  0.00    +0.000 OA
ATOM     24  C   UNL     1     110.863 131.099 136.953  0.00  0.00    +0.000 C 
ENDBRANCH  16  23
ENDBRANCH   8  14
TORSDOF 3
ENDMDL
