MODEL 1
REMARK VINA RESULT:      -8.1      0.000      0.000
REMARK  Name = 11190157
REMARK  8 active torsions:
REMARK  status: ('A' for Active; 'I' for Inactive)
REMARK    1  A    between atoms: O_2  and  C_15
REMARK    2  A    between atoms: O_2  and  C_17
REMARK    3  A    between atoms: O_7  and  C_23
REMARK    4  A    between atoms: C_14  and  C_16
REMARK    5  A    between atoms: C_18  and  C_20
REMARK    6  A    between atoms: C_20  and  C_22
REMARK    7  A    between atoms: C_22  and  C_24
REMARK    8  A    between atoms: C_24  and  C_26
REMARK                            x       y       z     vdW  Elec       q    Type
REMARK                         _______ _______ _______ _____ _____    ______ ____
ROOT
ATOM      1  O   UNL     1     114.496 128.582 134.724  0.00  0.00    +0.000 OA
ATOM      2  C   UNL     1     113.680 129.504 136.527  0.00  0.00    +0.000 A 
ATOM      3  C   UNL     1     113.828 128.951 135.932  0.00  0.00    +0.000 A 
ATOM      4  C   UNL     1     114.052 130.240 136.507  0.00  0.00    +0.000 A 
ATOM      5  C   UNL     1     114.348 129.135 135.318  0.00  0.00    +0.000 A 
ATOM      6  C   UNL     1     114.572 130.423 135.894  0.00  0.00    +0.000 A 
ATOM      7  C   UNL     1     114.720 129.871 135.300  0.00  0.00    +0.000 A 
ENDROOT
BRANCH   6   8
ATOM      8  O   UNL     1     114.943 131.159 135.875  0.00  0.00    +0.000 OA
ATOM      9  C   UNL     1     115.350 131.398 135.198  0.00  0.00    +0.000 C 
ENDBRANCH   6   8
BRANCH   3  11
ATOM     10  O   UNL     1     112.716 128.117 135.602  0.00  0.00    +0.000 OA
ATOM     11  C   UNL     1     113.456 128.215 135.951  0.00  0.00    +0.000 C 
BRANCH  11  12
ATOM     12  C   UNL     1     113.826 127.576 136.321  0.00  0.00    +0.000 C 
BRANCH  12  13
ATOM     13  C   UNL     1     113.445 126.845 136.359  0.00  0.00    +0.000 C 
BRANCH  13  15
ATOM     14  O   UNL     1     114.967 124.264 137.741  0.00  0.00    +0.000 OA
ATOM     15  C   UNL     1     113.826 126.199 136.705  0.00  0.00    +0.000 A 
ATOM     16  C   UNL     1     113.730 126.047 137.510  0.00  0.00    +0.000 A 
ATOM     17  C   UNL     1     114.302 125.707 136.245  0.00  0.00    +0.000 A 
ATOM     18  C   UNL     1     114.110 125.402 137.855  0.00  0.00    +0.000 A 
ATOM     19  C   UNL     1     114.682 125.061 136.591  0.00  0.00    +0.000 A 
ATOM     20  C   UNL     1     114.586 124.908 137.396  0.00  0.00    +0.000 A 
ENDBRANCH  13  15
ENDBRANCH  12  13
ENDBRANCH  11  12
ENDBRANCH   3  11
BRANCH   2  21
ATOM     21  O   UNL     1     113.160 129.320 137.141  0.00  0.00    +0.000 OA
BRANCH  21  30
ATOM     22  O   UNL     1     112.162 130.330 136.986  0.00  0.00    +0.000 OA
ATOM     23  O   UNL     1     112.293 130.829 139.407  0.00  0.00    +0.000 OA
ATOM     24  O   UNL     1     111.251 131.673 138.445  0.00  0.00    +0.000 OA
ATOM     25  O   UNL     1     113.247 129.653 138.754  0.00  0.00    +0.000 OA
ATOM     26  C   UNL     1     112.249 130.663 138.600  0.00  0.00    +0.000 C 
ATOM     27  C   UNL     1     111.728 131.085 138.119  0.00  0.00    +0.000 C 
ATOM     28  C   UNL     1     112.726 130.074 138.273  0.00  0.00    +0.000 C 
ATOM     29  C   UNL     1     111.685 130.919 137.312  0.00  0.00    +0.000 C 
ATOM     30  C   UNL     1     112.683 129.908 137.466  0.00  0.00    +0.000 C 
BRANCH  29  32
ATOM     31  O   UNL     1     110.727 130.949 136.252  0.00  0.00    +0.000 OA
ATOM     32  C   UNL     1     111.164 131.341 136.832  0.00  0.00    +0.000 C 
ENDBRANCH  29  32
ENDBRANCH  21  30
ENDBRANCH   2  21
TORSDOF 8
ENDMDL
MODEL 2
REMARK VINA RESULT:      -8.0     13.412     15.103
REMARK  Name = 11190157
REMARK  8 active torsions:
REMARK  status: ('A' for Active; 'I' for Inactive)
REMARK    1  A    between atoms: O_2  and  C_15
REMARK    2  A    between atoms: O_2  and  C_17
REMARK    3  A    between atoms: O_7  and  C_23
REMARK    4  A    between atoms: C_14  and  C_16
REMARK    5  A    between atoms: C_18  and  C_20
REMARK    6  A    between atoms: C_20  and  C_22
REMARK    7  A    between atoms: C_22  and  C_24
REMARK    8  A    between atoms: C_24  and  C_26
REMARK                            x       y       z     vdW  Elec       q    Type
REMARK                         _______ _______ _______ _____ _____    ______ ____
ROOT
ATOM      1  O   UNL     1     102.476 126.034 148.686  0.00  0.00    +0.000 OA
ATOM      2  C   UNL     1     104.592 125.503 148.712  0.00  0.00    +0.000 A 
ATOM      3  C   UNL     1     103.771 125.433 148.663  0.00  0.00    +0.000 A 
ATOM      4  C   UNL     1     104.937 126.242 148.833  0.00  0.00    +0.000 A 
ATOM      5  C   UNL     1     103.295 126.104 148.735  0.00  0.00    +0.000 A 
ATOM      6  C   UNL     1     104.461 126.913 148.906  0.00  0.00    +0.000 A 
ATOM      7  C   UNL     1     103.641 126.843 148.856  0.00  0.00    +0.000 A 
ENDROOT
BRANCH   6   8
ATOM      8  O   UNL     1     104.806 127.651 149.027  0.00  0.00    +0.000 OA
ATOM      9  C   UNL     1     104.692 128.255 148.476  0.00  0.00    +0.000 C 
ENDBRANCH   6   8
BRANCH   3  11
ATOM     10  O   UNL     1     103.341 124.169 149.172  0.00  0.00    +0.000 OA
ATOM     11  C   UNL     1     103.427 124.694 148.541  0.00  0.00    +0.000 C 
BRANCH  11  12
ATOM     12  C   UNL     1     103.168 124.479 147.787  0.00  0.00    +0.000 C 
BRANCH  12  13
ATOM     13  C   UNL     1     102.757 123.772 147.679  0.00  0.00    +0.000 C 
BRANCH  13  15
ATOM     14  O   UNL     1     101.767 122.887 144.658  0.00  0.00    +0.000 OA
ATOM     15  C   UNL     1     102.509 123.550 146.923  0.00  0.00    +0.000 A 
ATOM     16  C   UNL     1     101.715 123.625 146.711  0.00  0.00    +0.000 A 
ATOM     17  C   UNL     1     103.056 123.255 146.381  0.00  0.00    +0.000 A 
ATOM     18  C   UNL     1     101.468 123.404 145.957  0.00  0.00    +0.000 A 
ATOM     19  C   UNL     1     102.808 123.033 145.625  0.00  0.00    +0.000 A 
ATOM     20  C   UNL     1     102.014 123.108 145.413  0.00  0.00    +0.000 A 
ENDBRANCH  13  15
ENDBRANCH  12  13
ENDBRANCH  11  12
ENDBRANCH   3  11
BRANCH   2  21
ATOM     21  O   UNL     1     105.068 124.833 148.640  0.00  0.00    +0.000 OA
BRANCH  21  30
ATOM     22  O   UNL     1     105.973 125.169 147.588  0.00  0.00    +0.000 OA
ATOM     23  O   UNL     1     107.886 124.583 149.046  0.00  0.00    +0.000 OA
ATOM     24  O   UNL     1     108.154 125.114 147.507  0.00  0.00    +0.000 OA
ATOM     25  O   UNL     1     106.343 124.442 149.612  0.00  0.00    +0.000 OA
ATOM     26  C   UNL     1     107.248 124.778 148.560  0.00  0.00    +0.000 C 
ATOM     27  C   UNL     1     107.382 125.044 147.790  0.00  0.00    +0.000 C 
ATOM     28  C   UNL     1     106.476 124.708 148.843  0.00  0.00    +0.000 C 
ATOM     29  C   UNL     1     106.745 125.239 147.304  0.00  0.00    +0.000 C 
ATOM     30  C   UNL     1     105.839 124.903 148.357  0.00  0.00    +0.000 C 
BRANCH  29  32
ATOM     31  O   UNL     1     106.531 125.115 145.896  0.00  0.00    +0.000 OA
ATOM     32  C   UNL     1     106.879 125.505 146.535  0.00  0.00    +0.000 C 
ENDBRANCH  29  32
ENDBRANCH  21  30
ENDBRANCH   2  21
TORSDOF 8
ENDMDL
MODEL 3
REMARK VINA RESULT:      -8.0     11.660     13.694
REMARK  Name = 11190157
REMARK  8 active torsions:
REMARK  status: ('A' for Active; 'I' for Inactive)
REMARK    1  A    between atoms: O_2  and  C_15
REMARK    2  A    between atoms: O_2  and  C_17
REMARK    3  A    between atoms: O_7  and  C_23
REMARK    4  A    between atoms: C_14  and  C_16
REMARK    5  A    between atoms: C_18  and  C_20
REMARK    6  A    between atoms: C_20  and  C_22
REMARK    7  A    between atoms: C_22  and  C_24
REMARK    8  A    between atoms: C_24  and  C_26
REMARK                            x       y       z     vdW  Elec       q    Type
REMARK                         _______ _______ _______ _____ _____    ______ ____
ROOT
ATOM      1  O   UNL     1     108.146 125.624 147.048  0.00  0.00    +0.000 OA
ATOM      2  C   UNL     1     105.984 125.362 147.200  0.00  0.00    +0.000 A 
ATOM      3  C   UNL     1     106.722 125.624 146.938  0.00  0.00    +0.000 A 
ATOM      4  C   UNL     1     105.936 124.838 147.836  0.00  0.00    +0.000 A 
ATOM      5  C   UNL     1     107.410 125.362 147.310  0.00  0.00    +0.000 A 
ATOM      6  C   UNL     1     106.624 124.576 148.208  0.00  0.00    +0.000 A 
ATOM      7  C   UNL     1     107.360 124.838 147.946  0.00  0.00    +0.000 A 
ENDROOT
BRANCH   6   8
ATOM      8  O   UNL     1     106.574 124.053 148.843  0.00  0.00    +0.000 OA
ATOM      9  C   UNL     1     106.703 124.323 149.612  0.00  0.00    +0.000 C 
ENDBRANCH   6   8
BRANCH   3  11
ATOM     10  O   UNL     1     106.825 125.859 145.532  0.00  0.00    +0.000 OA
ATOM     11  C   UNL     1     106.770 126.148 146.302  0.00  0.00    +0.000 C 
BRANCH  11  12
ATOM     12  C   UNL     1     106.764 126.962 146.438  0.00  0.00    +0.000 C 
BRANCH  12  13
ATOM     13  C   UNL     1     106.794 127.486 145.802  0.00  0.00    +0.000 C 
BRANCH  13  15
ATOM     14  O   UNL     1     106.878 130.740 146.349  0.00  0.00    +0.000 OA
ATOM     15  C   UNL     1     106.815 128.300 145.939  0.00  0.00    +0.000 A 
ATOM     16  C   UNL     1     107.513 128.722 145.813  0.00  0.00    +0.000 A 
ATOM     17  C   UNL     1     106.138 128.691 146.202  0.00  0.00    +0.000 A 
ATOM     18  C   UNL     1     107.533 129.535 145.949  0.00  0.00    +0.000 A 
ATOM     19  C   UNL     1     106.159 129.505 146.339  0.00  0.00    +0.000 A 
ATOM     20  C   UNL     1     106.857 129.927 146.212  0.00  0.00    +0.000 A 
ENDBRANCH  13  15
ENDBRANCH  12  13
ENDBRANCH  11  12
ENDBRANCH   3  11
BRANCH   2  21
ATOM     21  O   UNL     1     105.297 125.624 146.827  0.00  0.00    +0.000 OA
BRANCH  21  30
ATOM     22  O   UNL     1     104.690 124.420 146.357  0.00  0.00    +0.000 OA
ATOM     23  O   UNL     1     102.571 125.054 147.469  0.00  0.00    +0.000 OA
ATOM     24  O   UNL     1     102.670 123.637 146.627  0.00  0.00    +0.000 OA
ATOM     25  O   UNL     1     103.884 126.046 147.568  0.00  0.00    +0.000 OA
ATOM     26  C   UNL     1     103.277 124.842 147.098  0.00  0.00    +0.000 C 
ATOM     27  C   UNL     1     103.327 124.134 146.677  0.00  0.00    +0.000 C 
ATOM     28  C   UNL     1     103.934 125.339 147.148  0.00  0.00    +0.000 C 
ATOM     29  C   UNL     1     104.033 123.923 146.307  0.00  0.00    +0.000 C 
ATOM     30  C   UNL     1     104.640 125.127 146.777  0.00  0.00    +0.000 C 
BRANCH  29  32
ATOM     31  O   UNL     1     104.501 123.185 145.176  0.00  0.00    +0.000 OA
ATOM     32  C   UNL     1     104.082 123.215 145.886  0.00  0.00    +0.000 C 
ENDBRANCH  29  32
ENDBRANCH  21  30
ENDBRANCH   2  21
TORSDOF 8
ENDMDL
MODEL 4
REMARK VINA RESULT:      -7.8      2.878      4.865
REMARK  Name = 11190157
REMARK  8 active torsions:
REMARK  status: ('A' for Active; 'I' for Inactive)
REMARK    1  A    between atoms: O_2  and  C_15
REMARK    2  A    between atoms: O_2  and  C_17
REMARK    3  A    between atoms: O_7  and  C_23
REMARK    4  A    between atoms: C_14  and  C_16
REMARK    5  A    between atoms: C_18  and  C_20
REMARK    6  A    between atoms: C_20  and  C_22
REMARK    7  A    between atoms: C_22  and  C_24
REMARK    8  A    between atoms: C_24  and  C_26
REMARK                            x       y       z     vdW  Elec       q    Type
REMARK                         _______ _______ _______ _____ _____    ______ ____
ROOT
ATOM      1  O   UNL     1     111.236 125.977 135.233  0.00  0.00    +0.000 OA
ATOM      2  C   UNL     1     111.599 126.073 137.383  0.00  0.00    +0.000 A 
ATOM      3  C   UNL     1     111.474 126.309 136.601  0.00  0.00    +0.000 A 
ATOM      4  C   UNL     1     111.610 125.271 137.574  0.00  0.00    +0.000 A 
ATOM      5  C   UNL     1     111.361 125.742 136.013  0.00  0.00    +0.000 A 
ATOM      6  C   UNL     1     111.497 124.704 136.986  0.00  0.00    +0.000 A 
ATOM      7  C   UNL     1     111.372 124.940 136.206  0.00  0.00    +0.000 A 
ENDROOT
BRANCH   6   8
ATOM      8  O   UNL     1     111.508 123.902 137.178  0.00  0.00    +0.000 OA
ATOM      9  C   UNL     1     112.177 123.448 137.011  0.00  0.00    +0.000 C 
ENDBRANCH   6   8
BRANCH   3  11
ATOM     10  O   UNL     1     110.759 127.539 136.465  0.00  0.00    +0.000 OA
ATOM     11  C   UNL     1     111.462 127.111 136.410  0.00  0.00    +0.000 C 
BRANCH  11  12
ATOM     12  C   UNL     1     112.155 127.486 136.164  0.00  0.00    +0.000 C 
BRANCH  12  13
ATOM     13  C   UNL     1     112.144 128.288 135.971  0.00  0.00    +0.000 C 
BRANCH  13  15
ATOM     14  O   UNL     1     114.852 129.730 134.757  0.00  0.00    +0.000 OA
ATOM     15  C   UNL     1     112.821 128.648 135.667  0.00  0.00    +0.000 A 
ATOM     16  C   UNL     1     113.514 128.669 136.115  0.00  0.00    +0.000 A 
ATOM     17  C   UNL     1     112.806 128.989 134.916  0.00  0.00    +0.000 A 
ATOM     18  C   UNL     1     114.190 129.029 135.812  0.00  0.00    +0.000 A 
ATOM     19  C   UNL     1     113.483 129.349 134.612  0.00  0.00    +0.000 A 
ATOM     20  C   UNL     1     114.176 129.370 135.060  0.00  0.00    +0.000 A 
ENDBRANCH  13  15
ENDBRANCH  12  13
ENDBRANCH  11  12
ENDBRANCH   3  11
BRANCH   2  21
ATOM     21  O   UNL     1     111.712 126.640 137.972  0.00  0.00    +0.000 OA
BRANCH  21  30
ATOM     22  O   UNL     1     110.631 126.358 138.862  0.00  0.00    +0.000 OA
ATOM     23  O   UNL     1     112.202 126.378 140.775  0.00  0.00    +0.000 OA
ATOM     24  O   UNL     1     110.597 126.089 141.028  0.00  0.00    +0.000 OA
ATOM     25  O   UNL     1     112.759 126.653 139.247  0.00  0.00    +0.000 OA
ATOM     26  C   UNL     1     111.678 126.371 140.137  0.00  0.00    +0.000 C 
ATOM     27  C   UNL     1     110.875 126.227 140.263  0.00  0.00    +0.000 C 
ATOM     28  C   UNL     1     111.956 126.509 139.373  0.00  0.00    +0.000 C 
ATOM     29  C   UNL     1     110.352 126.220 139.626  0.00  0.00    +0.000 C 
ATOM     30  C   UNL     1     111.433 126.502 138.735  0.00  0.00    +0.000 C 
BRANCH  29  32
ATOM     31  O   UNL     1     108.982 126.519 139.351  0.00  0.00    +0.000 OA
ATOM     32  C   UNL     1     109.550 126.075 139.752  0.00  0.00    +0.000 C 
ENDBRANCH  29  32
ENDBRANCH  21  30
ENDBRANCH   2  21
TORSDOF 8
ENDMDL
MODEL 5
REMARK VINA RESULT:      -7.8      1.817      5.098
REMARK  Name = 11190157
REMARK  8 active torsions:
REMARK  status: ('A' for Active; 'I' for Inactive)
REMARK    1  A    between atoms: O_2  and  C_15
REMARK    2  A    between atoms: O_2  and  C_17
REMARK    3  A    between atoms: O_7  and  C_23
REMARK    4  A    between atoms: C_14  and  C_16
REMARK    5  A    between atoms: C_18  and  C_20
REMARK    6  A    between atoms: C_20  and  C_22
REMARK    7  A    between atoms: C_22  and  C_24
REMARK    8  A    between atoms: C_24  and  C_26
REMARK                            x       y       z     vdW  Elec       q    Type
REMARK                         _______ _______ _______ _____ _____    ______ ____
ROOT
ATOM      1  O   UNL     1     112.558 129.082 138.687  0.00  0.00    +0.000 OA
ATOM      2  C   UNL     1     113.213 127.201 137.796  0.00  0.00    +0.000 A 
ATOM      3  C   UNL     1     112.945 127.978 137.868  0.00  0.00    +0.000 A 
ATOM      4  C   UNL     1     113.361 126.752 138.472  0.00  0.00    +0.000 A 
ATOM      5  C   UNL     1     112.826 128.306 138.615  0.00  0.00    +0.000 A 
ATOM      6  C   UNL     1     113.242 127.080 139.219  0.00  0.00    +0.000 A 
ATOM      7  C   UNL     1     112.975 127.856 139.291  0.00  0.00    +0.000 A 
ENDROOT
BRANCH   6   8
ATOM      8  O   UNL     1     113.391 126.631 139.895  0.00  0.00    +0.000 OA
ATOM      9  C   UNL     1     113.983 126.862 140.421  0.00  0.00    +0.000 C 
ENDBRANCH   6   8
BRANCH   3  11
ATOM     10  O   UNL     1     112.043 128.429 136.855  0.00  0.00    +0.000 OA
ATOM     11  C   UNL     1     112.796 128.427 137.192  0.00  0.00    +0.000 C 
BRANCH  11  12
ATOM     12  C   UNL     1     113.402 128.873 136.852  0.00  0.00    +0.000 C 
BRANCH  12  13
ATOM     13  C   UNL     1     113.251 129.329 136.181  0.00  0.00    +0.000 C 
BRANCH  13  15
ATOM     14  O   UNL     1     115.710 130.977 134.722  0.00  0.00    +0.000 OA
ATOM     15  C   UNL     1     113.866 129.742 135.816  0.00  0.00    +0.000 A 
ATOM     16  C   UNL     1     114.164 130.430 136.161  0.00  0.00    +0.000 A 
ATOM     17  C   UNL     1     114.183 129.465 135.107  0.00  0.00    +0.000 A 
ATOM     18  C   UNL     1     114.778 130.841 135.797  0.00  0.00    +0.000 A 
ATOM     19  C   UNL     1     114.798 129.877 134.742  0.00  0.00    +0.000 A 
ATOM     20  C   UNL     1     115.096 130.565 135.087  0.00  0.00    +0.000 A 
ENDBRANCH  13  15
ENDBRANCH  12  13
ENDBRANCH  11  12
ENDBRANCH   3  11
BRANCH   2  21
ATOM     21  O   UNL     1     113.332 126.873 137.048  0.00  0.00    +0.000 OA
BRANCH  21  30
ATOM     22  O   UNL     1     112.435 125.762 137.078  0.00  0.00    +0.000 OA
ATOM     23  O   UNL     1     114.231 124.289 136.223  0.00  0.00    +0.000 OA
ATOM     24  O   UNL     1     112.735 123.668 136.538  0.00  0.00    +0.000 OA
ATOM     25  O   UNL     1     114.529 125.891 136.478  0.00  0.00    +0.000 OA
ATOM     26  C   UNL     1     113.633 124.780 136.508  0.00  0.00    +0.000 C 
ATOM     27  C   UNL     1     112.884 124.470 136.665  0.00  0.00    +0.000 C 
ATOM     28  C   UNL     1     113.781 125.581 136.636  0.00  0.00    +0.000 C 
ATOM     29  C   UNL     1     112.285 124.961 136.950  0.00  0.00    +0.000 C 
ATOM     30  C   UNL     1     113.183 126.072 136.921  0.00  0.00    +0.000 C 
BRANCH  29  32
ATOM     31  O   UNL     1     110.864 125.108 136.977  0.00  0.00    +0.000 OA
ATOM     32  C   UNL     1     111.538 124.650 137.108  0.00  0.00    +0.000 C 
ENDBRANCH  29  32
ENDBRANCH  21  30
ENDBRANCH   2  21
TORSDOF 8
ENDMDL
MODEL 6
REMARK VINA RESULT:      -7.7      1.782      3.139
REMARK  Name = 11190157
REMARK  8 active torsions:
REMARK  status: ('A' for Active; 'I' for Inactive)
REMARK    1  A    between atoms: O_2  and  C_15
REMARK    2  A    between atoms: O_2  and  C_17
REMARK    3  A    between atoms: O_7  and  C_23
REMARK    4  A    between atoms: C_14  and  C_16
REMARK    5  A    between atoms: C_18  and  C_20
REMARK    6  A    between atoms: C_20  and  C_22
REMARK    7  A    between atoms: C_22  and  C_24
REMARK    8  A    between atoms: C_24  and  C_26
REMARK                            x       y       z     vdW  Elec       q    Type
REMARK                         _______ _______ _______ _____ _____    ______ ____
ROOT
ATOM      1  O   UNL     1     114.274 127.402 140.696  0.00  0.00    +0.000 OA
ATOM      2  C   UNL     1     113.143 128.914 139.601  0.00  0.00    +0.000 A 
ATOM      3  C   UNL     1     113.426 128.179 139.850  0.00  0.00    +0.000 A 
ATOM      4  C   UNL     1     113.429 129.604 139.951  0.00  0.00    +0.000 A 
ATOM      5  C   UNL     1     113.993 128.136 140.448  0.00  0.00    +0.000 A 
ATOM      6  C   UNL     1     113.996 129.561 140.548  0.00  0.00    +0.000 A 
ATOM      7  C   UNL     1     114.277 128.827 140.796  0.00  0.00    +0.000 A 
ENDROOT
BRANCH   6   8
ATOM      8  O   UNL     1     114.280 130.252 140.897  0.00  0.00    +0.000 OA
ATOM      9  C   UNL     1     115.035 130.527 140.711  0.00  0.00    +0.000 C 
ENDBRANCH   6   8
BRANCH   3  11
ATOM     10  O   UNL     1     112.427 127.162 139.754  0.00  0.00    +0.000 OA
ATOM     11  C   UNL     1     113.140 127.488 139.500  0.00  0.00    +0.000 C 
BRANCH  11  12
ATOM     12  C   UNL     1     113.570 127.124 138.896  0.00  0.00    +0.000 C 
BRANCH  12  13
ATOM     13  C   UNL     1     113.292 126.426 138.557  0.00  0.00    +0.000 C 
BRANCH  13  15
ATOM     14  O   UNL     1     114.943 125.037 136.060  0.00  0.00    +0.000 OA
ATOM     15  C   UNL     1     113.705 126.078 137.932  0.00  0.00    +0.000 A 
ATOM     16  C   UNL     1     113.614 126.369 137.166  0.00  0.00    +0.000 A 
ATOM     17  C   UNL     1     114.209 125.441 138.075  0.00  0.00    +0.000 A 
ATOM     18  C   UNL     1     114.027 126.022 136.542  0.00  0.00    +0.000 A 
ATOM     19  C   UNL     1     114.621 125.093 137.450  0.00  0.00    +0.000 A 
ATOM     20  C   UNL     1     114.531 125.384 136.683  0.00  0.00    +0.000 A 
ENDBRANCH  13  15
ENDBRANCH  12  13
ENDBRANCH  11  12
ENDBRANCH   3  11
BRANCH   2  21
ATOM     21  O   UNL     1     112.576 128.957 139.003  0.00  0.00    +0.000 OA
BRANCH  21  30
ATOM     22  O   UNL     1     113.194 129.798 138.029  0.00  0.00    +0.000 OA
ATOM     23  O   UNL     1     111.175 131.228 137.982  0.00  0.00    +0.000 OA
ATOM     24  O   UNL     1     112.466 131.593 137.022  0.00  0.00    +0.000 OA
ATOM     25  O   UNL     1     111.230 129.911 138.972  0.00  0.00    +0.000 OA
ATOM     26  C   UNL     1     111.848 130.751 137.998  0.00  0.00    +0.000 C 
ATOM     27  C   UNL     1     112.494 130.934 137.517  0.00  0.00    +0.000 C 
ATOM     28  C   UNL     1     111.876 130.092 138.493  0.00  0.00    +0.000 C 
ATOM     29  C   UNL     1     113.167 130.457 137.533  0.00  0.00    +0.000 C 
ATOM     30  C   UNL     1     112.549 129.616 138.508  0.00  0.00    +0.000 C 
BRANCH  29  32
ATOM     31  O   UNL     1     114.232 130.036 136.677  0.00  0.00    +0.000 OA
ATOM     32  C   UNL     1     113.813 130.640 137.053  0.00  0.00    +0.000 C 
ENDBRANCH  29  32
ENDBRANCH  21  30
ENDBRANCH   2  21
TORSDOF 8
ENDMDL
MODEL 7
REMARK VINA RESULT:      -7.7      2.246      3.254
REMARK  Name = 11190157
REMARK  8 active torsions:
REMARK  status: ('A' for Active; 'I' for Inactive)
REMARK    1  A    between atoms: O_2  and  C_15
REMARK    2  A    between atoms: O_2  and  C_17
REMARK    3  A    between atoms: O_7  and  C_23
REMARK    4  A    between atoms: C_14  and  C_16
REMARK    5  A    between atoms: C_18  and  C_20
REMARK    6  A    between atoms: C_20  and  C_22
REMARK    7  A    between atoms: C_22  and  C_24
REMARK    8  A    between atoms: C_24  and  C_26
REMARK                            x       y       z     vdW  Elec       q    Type
REMARK                         _______ _______ _______ _____ _____    ______ ____
ROOT
ATOM      1  O   UNL     1     113.450 127.659 138.246  0.00  0.00    +0.000 OA
ATOM      2  C   UNL     1     112.012 128.555 136.870  0.00  0.00    +0.000 A 
ATOM      3  C   UNL     1     112.589 128.050 137.175  0.00  0.00    +0.000 A 
ATOM      4  C   UNL     1     111.719 129.172 137.332  0.00  0.00    +0.000 A 
ATOM      5  C   UNL     1     112.873 128.163 137.942  0.00  0.00    +0.000 A 
ATOM      6  C   UNL     1     112.003 129.286 138.098  0.00  0.00    +0.000 A 
ATOM      7  C   UNL     1     112.579 128.782 138.403  0.00  0.00    +0.000 A 
ENDROOT
BRANCH   6   8
ATOM      8  O   UNL     1     111.710 129.904 138.559  0.00  0.00    +0.000 OA
ATOM      9  C   UNL     1     112.138 130.605 138.629  0.00  0.00    +0.000 C 
ENDBRANCH   6   8
BRANCH   3  11
ATOM     10  O   UNL     1     113.438 127.585 136.124  0.00  0.00    +0.000 OA
ATOM     11  C   UNL     1     112.882 127.432 136.714  0.00  0.00    +0.000 C 
BRANCH  11  12
ATOM     12  C   UNL     1     112.618 126.660 136.843  0.00  0.00    +0.000 C 
BRANCH  12  13
ATOM     13  C   UNL     1     112.869 126.051 136.346  0.00  0.00    +0.000 C 
BRANCH  13  15
ATOM     14  O   UNL     1     111.978 122.938 136.980  0.00  0.00    +0.000 OA
ATOM     15  C   UNL     1     112.646 125.272 136.505  0.00  0.00    +0.000 A 
ATOM     16  C   UNL     1     111.854 125.049 136.443  0.00  0.00    +0.000 A 
ATOM     17  C   UNL     1     113.215 124.718 136.724  0.00  0.00    +0.000 A 
ATOM     18  C   UNL     1     111.631 124.271 136.602  0.00  0.00    +0.000 A 
ATOM     19  C   UNL     1     112.992 123.939 136.883  0.00  0.00    +0.000 A 
ATOM     20  C   UNL     1     112.200 123.715 136.822  0.00  0.00    +0.000 A 
ENDBRANCH  13  15
ENDBRANCH  12  13
ENDBRANCH  11  12
ENDBRANCH   3  11
BRANCH   2  21
ATOM     21  O   UNL     1     111.728 128.441 136.104  0.00  0.00    +0.000 OA
BRANCH  21  30
ATOM     22  O   UNL     1     110.325 128.252 136.296  0.00  0.00    +0.000 OA
ATOM     23  O   UNL     1     109.858 130.004 134.612  0.00  0.00    +0.000 OA
ATOM     24  O   UNL     1     108.610 129.230 135.366  0.00  0.00    +0.000 OA
ATOM     25  O   UNL     1     111.416 129.609 134.981  0.00  0.00    +0.000 OA
ATOM     26  C   UNL     1     110.014 129.420 135.173  0.00  0.00    +0.000 C 
ATOM     27  C   UNL     1     109.390 129.033 135.551  0.00  0.00    +0.000 C 
ATOM     28  C   UNL     1     110.793 129.222 135.358  0.00  0.00    +0.000 C 
ATOM     29  C   UNL     1     109.545 128.449 136.112  0.00  0.00    +0.000 C 
ATOM     30  C   UNL     1     110.949 128.638 135.920  0.00  0.00    +0.000 C 
BRANCH  29  32
ATOM     31  O   UNL     1     108.968 127.252 136.638  0.00  0.00    +0.000 OA
ATOM     32  C   UNL     1     108.922 128.062 136.489  0.00  0.00    +0.000 C 
ENDBRANCH  29  32
ENDBRANCH  21  30
ENDBRANCH   2  21
TORSDOF 8
ENDMDL
MODEL 8
REMARK VINA RESULT:      -7.7      2.174      3.276
REMARK  Name = 11190157
REMARK  8 active torsions:
REMARK  status: ('A' for Active; 'I' for Inactive)
REMARK    1  A    between atoms: O_2  and  C_15
REMARK    2  A    between atoms: O_2  and  C_17
REMARK    3  A    between atoms: O_7  and  C_23
REMARK    4  A    between atoms: C_14  and  C_16
REMARK    5  A    between atoms: C_18  and  C_20
REMARK    6  A    between atoms: C_20  and  C_22
REMARK    7  A    between atoms: C_22  and  C_24
REMARK    8  A    between atoms: C_24  and  C_26
REMARK                            x       y       z     vdW  Elec       q    Type
REMARK                         _______ _______ _______ _____ _____    ______ ____
ROOT
ATOM      1  O   UNL     1     113.464 129.051 137.819  0.00  0.00    +0.000 OA
ATOM      2  C   UNL     1     111.423 128.554 137.225  0.00  0.00    +0.000 A 
ATOM      3  C   UNL     1     112.249 128.561 137.252  0.00  0.00    +0.000 A 
ATOM      4  C   UNL     1     110.991 129.033 137.740  0.00  0.00    +0.000 A 
ATOM      5  C   UNL     1     112.640 129.045 137.792  0.00  0.00    +0.000 A 
ATOM      6  C   UNL     1     111.383 129.517 138.280  0.00  0.00    +0.000 A 
ATOM      7  C   UNL     1     112.207 129.523 138.307  0.00  0.00    +0.000 A 
ENDROOT
BRANCH   6   8
ATOM      8  O   UNL     1     110.950 129.995 138.794  0.00  0.00    +0.000 OA
ATOM      9  C   UNL     1     110.834 129.760 139.577  0.00  0.00    +0.000 C 
ENDBRANCH   6   8
BRANCH   3  11
ATOM     10  O   UNL     1     112.887 128.361 135.989  0.00  0.00    +0.000 OA
ATOM     11  C   UNL     1     112.681 128.082 136.737  0.00  0.00    +0.000 C 
BRANCH  11  12
ATOM     12  C   UNL     1     112.907 127.324 136.972  0.00  0.00    +0.000 C 
BRANCH  12  13
ATOM     13  C   UNL     1     113.360 126.855 136.467  0.00  0.00    +0.000 C 
BRANCH  13  15
ATOM     14  O   UNL     1     114.148 123.773 137.347  0.00  0.00    +0.000 OA
ATOM     15  C   UNL     1     113.558 126.084 136.687  0.00  0.00    +0.000 A 
ATOM     16  C   UNL     1     114.281 125.932 137.054  0.00  0.00    +0.000 A 
ATOM     17  C   UNL     1     113.031 125.466 136.541  0.00  0.00    +0.000 A 
ATOM     18  C   UNL     1     114.478 125.162 137.274  0.00  0.00    +0.000 A 
ATOM     19  C   UNL     1     113.228 124.695 136.761  0.00  0.00    +0.000 A 
ATOM     20  C   UNL     1     113.952 124.543 137.127  0.00  0.00    +0.000 A 
ENDBRANCH  13  15
ENDBRANCH  12  13
ENDBRANCH  11  12
ENDBRANCH   3  11
BRANCH   2  21
ATOM     21  O   UNL     1     111.032 128.070 136.684  0.00  0.00    +0.000 OA
BRANCH  21  30
ATOM     22  O   UNL     1     110.207 129.007 135.992  0.00  0.00    +0.000 OA
ATOM     23  O   UNL     1     108.252 127.524 136.313  0.00  0.00    +0.000 OA
ATOM     24  O   UNL     1     108.078 128.957 135.513  0.00  0.00    +0.000 OA
ATOM     25  O   UNL     1     109.728 127.081 136.898  0.00  0.00    +0.000 OA
ATOM     26  C   UNL     1     108.903 128.018 136.206  0.00  0.00    +0.000 C 
ATOM     27  C   UNL     1     108.816 128.735 135.806  0.00  0.00    +0.000 C 
ATOM     28  C   UNL     1     109.642 127.797 136.499  0.00  0.00    +0.000 C 
ATOM     29  C   UNL     1     109.468 129.230 135.699  0.00  0.00    +0.000 C 
ATOM     30  C   UNL     1     110.294 128.292 136.392  0.00  0.00    +0.000 C 
BRANCH  29  32
ATOM     31  O   UNL     1     109.889 130.136 134.678  0.00  0.00    +0.000 OA
ATOM     32  C   UNL     1     109.381 129.946 135.299  0.00  0.00    +0.000 C 
ENDBRANCH  29  32
ENDBRANCH  21  30
ENDBRANCH   2  21
TORSDOF 8
ENDMDL
MODEL 9
REMARK VINA RESULT:      -7.6     11.079     12.550
REMARK  Name = 11190157
REMARK  8 active torsions:
REMARK  status: ('A' for Active; 'I' for Inactive)
REMARK    1  A    between atoms: O_2  and  C_15
REMARK    2  A    between atoms: O_2  and  C_17
REMARK    3  A    between atoms: O_7  and  C_23
REMARK    4  A    between atoms: C_14  and  C_16
REMARK    5  A    between atoms: C_18  and  C_20
REMARK    6  A    between atoms: C_20  and  C_22
REMARK    7  A    between atoms: C_22  and  C_24
REMARK    8  A    between atoms: C_24  and  C_26
REMARK                            x       y       z     vdW  Elec       q    Type
REMARK                         _______ _______ _______ _____ _____    ______ ____
ROOT
ATOM      1  O   UNL     1     100.851 133.347 141.626  0.00  0.00    +0.000 OA
ATOM      2  C   UNL     1     102.926 133.646 142.237  0.00  0.00    +0.000 A 
ATOM      3  C   UNL     1     102.195 133.284 142.107  0.00  0.00    +0.000 A 
ATOM      4  C   UNL     1     103.041 134.432 142.014  0.00  0.00    +0.000 A 
ATOM      5  C   UNL     1     101.581 133.708 141.756  0.00  0.00    +0.000 A 
ATOM      6  C   UNL     1     102.427 134.856 141.663  0.00  0.00    +0.000 A 
ATOM      7  C   UNL     1     101.698 134.495 141.533  0.00  0.00    +0.000 A 
ENDROOT
BRANCH   6   8
ATOM      8  O   UNL     1     102.543 135.642 141.441  0.00  0.00    +0.000 OA
ATOM      9  C   UNL     1     102.777 135.822 140.670  0.00  0.00    +0.000 C 
ENDBRANCH   6   8
BRANCH   3  11
ATOM     10  O   UNL     1     101.768 132.321 143.073  0.00  0.00    +0.000 OA
ATOM     11  C   UNL     1     102.080 132.498 142.330  0.00  0.00    +0.000 C 
BRANCH  11  12
ATOM     12  C   UNL     1     102.276 131.889 141.808  0.00  0.00    +0.000 C 
BRANCH  12  13
ATOM     13  C   UNL     1     102.084 131.109 141.995  0.00  0.00    +0.000 C 
BRANCH  13  15
ATOM     14  O   UNL     1     103.239 128.638 140.137  0.00  0.00    +0.000 OA
ATOM     15  C   UNL     1     102.373 130.491 141.530  0.00  0.00    +0.000 A 
ATOM     16  C   UNL     1     103.029 130.058 141.782  0.00  0.00    +0.000 A 
ATOM     17  C   UNL     1     102.006 130.307 140.815  0.00  0.00    +0.000 A 
ATOM     18  C   UNL     1     103.317 129.440 141.318  0.00  0.00    +0.000 A 
ATOM     19  C   UNL     1     102.295 129.689 140.350  0.00  0.00    +0.000 A 
ATOM     20  C   UNL     1     102.951 129.255 140.602  0.00  0.00    +0.000 A 
ENDBRANCH  13  15
ENDBRANCH  12  13
ENDBRANCH  11  12
ENDBRANCH   3  11
BRANCH   2  21
ATOM     21  O   UNL     1     103.540 133.222 142.588  0.00  0.00    +0.000 OA
BRANCH  21  30
ATOM     22  O   UNL     1     103.813 133.988 143.762  0.00  0.00    +0.000 OA
ATOM     23  O   UNL     1     106.222 134.000 143.194  0.00  0.00    +0.000 OA
ATOM     24  O   UNL     1     105.692 134.762 144.558  0.00  0.00    +0.000 OA
ATOM     25  O   UNL     1     105.146 133.230 142.209  0.00  0.00    +0.000 OA
ATOM     26  C   UNL     1     105.419 133.996 143.383  0.00  0.00    +0.000 C 
ATOM     27  C   UNL     1     105.154 134.377 144.066  0.00  0.00    +0.000 C 
ATOM     28  C   UNL     1     104.880 133.611 142.891  0.00  0.00    +0.000 C 
ATOM     29  C   UNL     1     104.351 134.373 144.256  0.00  0.00    +0.000 C 
ATOM     30  C   UNL     1     104.077 133.607 143.081  0.00  0.00    +0.000 C 
BRANCH  29  32
ATOM     31  O   UNL     1     103.490 134.414 145.396  0.00  0.00    +0.000 OA
ATOM     32  C   UNL     1     104.086 134.754 144.937  0.00  0.00    +0.000 C 
ENDBRANCH  29  32
ENDBRANCH  21  30
ENDBRANCH   2  21
TORSDOF 8
ENDMDL
MODEL 10
REMARK VINA RESULT:      -7.6      2.152      3.504
REMARK  Name = 11190157
REMARK  8 active torsions:
REMARK  status: ('A' for Active; 'I' for Inactive)
REMARK    1  A    between atoms: O_2  and  C_15
REMARK    2  A    between atoms: O_2  and  C_17
REMARK    3  A    between atoms: O_7  and  C_23
REMARK    4  A    between atoms: C_14  and  C_16
REMARK    5  A    between atoms: C_18  and  C_20
REMARK    6  A    between atoms: C_20  and  C_22
REMARK    7  A    between atoms: C_22  and  C_24
REMARK    8  A    between atoms: C_24  and  C_26
REMARK                            x       y       z     vdW  Elec       q    Type
REMARK                         _______ _______ _______ _____ _____    ______ ____
ROOT
ATOM      1  O   UNL     1     113.327 125.546 138.196  0.00  0.00    +0.000 OA
ATOM      2  C   UNL     1     113.136 127.720 138.270  0.00  0.00    +0.000 A 
ATOM      3  C   UNL     1     113.172 126.949 137.975  0.00  0.00    +0.000 A 
ATOM      4  C   UNL     1     113.217 127.855 139.079  0.00  0.00    +0.000 A 
ATOM      5  C   UNL     1     113.291 126.316 138.490  0.00  0.00    +0.000 A 
ATOM      6  C   UNL     1     113.335 127.222 139.594  0.00  0.00    +0.000 A 
ATOM      7  C   UNL     1     113.372 126.453 139.300  0.00  0.00    +0.000 A 
ENDROOT
BRANCH   6   8
ATOM      8  O   UNL     1     113.417 127.358 140.403  0.00  0.00    +0.000 OA
ATOM      9  C   UNL     1     114.166 127.360 140.748  0.00  0.00    +0.000 C 
ENDBRANCH   6   8
BRANCH   3  11
ATOM     10  O   UNL     1     113.742 126.894 136.666  0.00  0.00    +0.000 OA
ATOM     11  C   UNL     1     113.091 126.813 137.166  0.00  0.00    +0.000 C 
BRANCH  11  12
ATOM     12  C   UNL     1     112.357 126.596 136.856  0.00  0.00    +0.000 C 
BRANCH  12  13
ATOM     13  C   UNL     1     112.283 126.427 136.052  0.00  0.00    +0.000 C 
BRANCH  13  15
ATOM     14  O   UNL     1     109.318 125.733 134.781  0.00  0.00    +0.000 OA
ATOM     15  C   UNL     1     111.541 126.254 135.734  0.00  0.00    +0.000 A 
ATOM     16  C   UNL     1     111.075 126.858 135.420  0.00  0.00    +0.000 A 
ATOM     17  C   UNL     1     111.266 125.476 135.730  0.00  0.00    +0.000 A 
ATOM     18  C   UNL     1     110.334 126.684 135.102  0.00  0.00    +0.000 A 
ATOM     19  C   UNL     1     110.524 125.302 135.412  0.00  0.00    +0.000 A 
ATOM     20  C   UNL     1     110.058 125.906 135.098  0.00  0.00    +0.000 A 
ENDBRANCH  13  15
ENDBRANCH  12  13
ENDBRANCH  11  12
ENDBRANCH   3  11
BRANCH   2  21
ATOM     21  O   UNL     1     113.018 128.353 137.754  0.00  0.00    +0.000 OA
BRANCH  21  30
ATOM     22  O   UNL     1     111.871 128.995 138.314  0.00  0.00    +0.000 OA
ATOM     23  O   UNL     1     113.051 131.170 138.234  0.00  0.00    +0.000 OA
ATOM     24  O   UNL     1     111.511 131.087 138.820  0.00  0.00    +0.000 OA
ATOM     25  O   UNL     1     113.804 129.802 137.701  0.00  0.00    +0.000 OA
ATOM     26  C   UNL     1     112.658 130.445 138.261  0.00  0.00    +0.000 C 
ATOM     27  C   UNL     1     111.887 130.404 138.554  0.00  0.00    +0.000 C 
ATOM     28  C   UNL     1     113.034 129.761 137.994  0.00  0.00    +0.000 C 
ATOM     29  C   UNL     1     111.494 129.679 138.580  0.00  0.00    +0.000 C 
ATOM     30  C   UNL     1     112.641 129.036 138.021  0.00  0.00    +0.000 C 
BRANCH  29  32
ATOM     31  O   UNL     1     110.162 129.169 138.493  0.00  0.00    +0.000 OA
ATOM     32  C   UNL     1     110.724 129.638 138.873  0.00  0.00    +0.000 C 
ENDBRANCH  29  32
ENDBRANCH  21  30
ENDBRANCH   2  21
TORSDOF 8
ENDMDL
