MODEL 1
REMARK VINA RESULT:     -10.6      0.000      0.000
REMARK  Name = 13916054
REMARK  9 active torsions:
REMARK  status: ('A' for Active; 'I' for Inactive)
REMARK    1  A    between atoms: O_1  and  C_16
REMARK    2  A    between atoms: O_1  and  C_18
REMARK    3  A    between atoms: O_4  and  C_21
REMARK    4  A    between atoms: O_4  and  C_28
REMARK    5  A    between atoms: O_15  and  C_44
REMARK    6  A    between atoms: C_25  and  C_27
REMARK    7  A    between atoms: C_29  and  C_33
REMARK    8  A    between atoms: C_34  and  C_37
REMARK    9  A    between atoms: C_37  and  C_43
REMARK                            x       y       z     vdW  Elec       q    Type
REMARK                         _______ _______ _______ _____ _____    ______ ____
ROOT
ATOM      1  O   UNL     1     112.262 127.215 136.857  0.00  0.00    +0.000 OA
ATOM      2  O   UNL     1     109.796 127.406 136.912  0.00  0.00    +0.000 OA
ATOM      3  O   UNL     1     109.651 126.042 136.469  0.00  0.00    +0.000 OA
ATOM      4  O   UNL     1     112.048 124.453 135.960  0.00  0.00    +0.000 OA
ATOM      5  C   UNL     1     111.087 127.988 137.104  0.00  0.00    +0.000 A 
ATOM      6  C   UNL     1     111.908 127.924 137.086  0.00  0.00    +0.000 A 
ATOM      7  C   UNL     1     110.617 127.343 136.893  0.00  0.00    +0.000 A 
ATOM      8  C   UNL     1     110.971 126.633 136.664  0.00  0.00    +0.000 A 
ATOM      9  C   UNL     1     111.794 126.569 136.646  0.00  0.00    +0.000 A 
ATOM     10  C   UNL     1     112.174 125.836 136.409  0.00  0.00    +0.000 A 
ATOM     11  C   UNL     1     110.473 125.969 136.447  0.00  0.00    +0.000 A 
ATOM     12  C   UNL     1     111.691 125.161 136.189  0.00  0.00    +0.000 A 
ATOM     13  C   UNL     1     110.835 125.227 136.208  0.00  0.00    +0.000 A 
ENDROOT
BRANCH   6  14
ATOM     14  C   UNL     1     112.378 128.570 137.296  0.00  0.00    +0.000 A 
ATOM     15  C   UNL     1     112.531 128.725 138.092  0.00  0.00    +0.000 A 
ATOM     16  C   UNL     1     112.694 129.058 136.713  0.00  0.00    +0.000 A 
ATOM     17  C   UNL     1     113.000 129.370 138.304  0.00  0.00    +0.000 A 
ATOM     18  C   UNL     1     113.163 129.704 136.923  0.00  0.00    +0.000 A 
ATOM     19  C   UNL     1     113.316 129.859 137.719  0.00  0.00    +0.000 A 
BRANCH  19  20
ATOM     20  O   UNL     1     113.785 130.504 137.931  0.00  0.00    +0.000 OA
ATOM     21  C   UNL     1     114.096 130.554 138.694  0.00  0.00    +0.000 C 
ENDBRANCH  19  20
ENDBRANCH   6  14
BRANCH   5  22
ATOM     22  O   UNL     1     110.733 128.697 137.333  0.00  0.00    +0.000 OA
BRANCH  22  29
ATOM     23  O   UNL     1     110.333 129.095 136.021  0.00  0.00    +0.000 OA
ATOM     24  O   UNL     1     108.290 130.131 136.958  0.00  0.00    +0.000 OA
ATOM     25  O   UNL     1     108.570 130.184 135.333  0.00  0.00    +0.000 OA
ATOM     26  C   UNL     1     109.511 129.414 137.145  0.00  0.00    +0.000 C 
ATOM     27  C   UNL     1     108.971 129.786 136.646  0.00  0.00    +0.000 C 
ATOM     28  C   UNL     1     109.111 129.812 135.834  0.00  0.00    +0.000 C 
ATOM     29  C   UNL     1     110.192 129.069 136.833  0.00  0.00    +0.000 C 
ATOM     30  C   UNL     1     109.791 129.467 135.521  0.00  0.00    +0.000 C 
ATOM     31  C   UNL     1     109.932 129.494 134.708  0.00  0.00    +0.000 C 
BRANCH  26  32
ATOM     32  O   UNL     1     109.371 129.388 137.958  0.00  0.00    +0.000 OA
BRANCH  32  37
ATOM     33  O   UNL     1     109.802 130.746 138.076  0.00  0.00    +0.000 OA
ATOM     34  O   UNL     1     109.109 129.330 139.586  0.00  0.00    +0.000 OA
ATOM     35  O   UNL     1     109.409 130.658 140.518  0.00  0.00    +0.000 OA
ATOM     36  O   UNL     1     109.970 132.045 139.821  0.00  0.00    +0.000 OA
ATOM     37  C   UNL     1     109.521 130.052 138.424  0.00  0.00    +0.000 C 
ATOM     38  C   UNL     1     109.390 130.024 139.238  0.00  0.00    +0.000 C 
ATOM     39  C   UNL     1     109.540 130.688 139.704  0.00  0.00    +0.000 C 
ATOM     40  C   UNL     1     109.820 131.380 139.356  0.00  0.00    +0.000 C 
ATOM     41  C   UNL     1     109.951 131.410 138.541  0.00  0.00    +0.000 C 
BRANCH  41  43
ATOM     42  O   UNL     1     111.016 132.152 137.946  0.00  0.00    +0.000 OA
ATOM     43  C   UNL     1     110.232 132.103 138.193  0.00  0.00    +0.000 C 
ENDBRANCH  41  43
ENDBRANCH  32  37
ENDBRANCH  26  32
ENDBRANCH  22  29
ENDBRANCH   5  22
BRANCH  10  44
ATOM     44  C   UNL     1     112.997 125.782 136.394  0.00  0.00    +0.000 C 
BRANCH  44  45
ATOM     45  C   UNL     1     113.390 125.307 136.943  0.00  0.00    +0.000 C 
ATOM     46  C   UNL     1     114.213 125.266 136.938  0.00  0.00    +0.000 C 
ATOM     47  C   UNL     1     114.606 124.791 137.487  0.00  0.00    +0.000 C 
ATOM     48  C   UNL     1     114.645 125.699 136.384  0.00  0.00    +0.000 C 
ENDBRANCH  44  45
ENDBRANCH  10  44
TORSDOF 9
ENDMDL
MODEL 2
REMARK VINA RESULT:     -10.2      1.012      2.176
REMARK  Name = 13916054
REMARK  9 active torsions:
REMARK  status: ('A' for Active; 'I' for Inactive)
REMARK    1  A    between atoms: O_1  and  C_16
REMARK    2  A    between atoms: O_1  and  C_18
REMARK    3  A    between atoms: O_4  and  C_21
REMARK    4  A    between atoms: O_4  and  C_28
REMARK    5  A    between atoms: O_15  and  C_44
REMARK    6  A    between atoms: C_25  and  C_27
REMARK    7  A    between atoms: C_29  and  C_33
REMARK    8  A    between atoms: C_34  and  C_37
REMARK    9  A    between atoms: C_37  and  C_43
REMARK                            x       y       z     vdW  Elec       q    Type
REMARK                         _______ _______ _______ _____ _____    ______ ____
ROOT
ATOM      1  O   UNL     1     112.434 127.147 136.445  0.00  0.00    +0.000 OA
ATOM      2  O   UNL     1     109.988 127.398 136.722  0.00  0.00    +0.000 OA
ATOM      3  O   UNL     1     109.806 125.969 136.665  0.00  0.00    +0.000 OA
ATOM      4  O   UNL     1     112.143 124.252 136.322  0.00  0.00    +0.000 OA
ATOM      5  C   UNL     1     111.288 127.982 136.613  0.00  0.00    +0.000 A 
ATOM      6  C   UNL     1     112.103 127.899 136.520  0.00  0.00    +0.000 A 
ATOM      7  C   UNL     1     110.803 127.315 136.629  0.00  0.00    +0.000 A 
ATOM      8  C   UNL     1     111.135 126.563 136.554  0.00  0.00    +0.000 A 
ATOM      9  C   UNL     1     111.951 126.479 136.461  0.00  0.00    +0.000 A 
ATOM     10  C   UNL     1     112.308 125.702 136.381  0.00  0.00    +0.000 A 
ATOM     11  C   UNL     1     110.620 125.875 136.572  0.00  0.00    +0.000 A 
ATOM     12  C   UNL     1     111.809 125.002 136.398  0.00  0.00    +0.000 A 
ATOM     13  C   UNL     1     110.960 125.089 136.494  0.00  0.00    +0.000 A 
ENDROOT
BRANCH   6  14
ATOM     14  C   UNL     1     112.587 128.566 136.504  0.00  0.00    +0.000 A 
ATOM     15  C   UNL     1     112.668 128.999 135.806  0.00  0.00    +0.000 A 
ATOM     16  C   UNL     1     112.990 128.801 137.183  0.00  0.00    +0.000 A 
ATOM     17  C   UNL     1     113.153 129.667 135.788  0.00  0.00    +0.000 A 
ATOM     18  C   UNL     1     113.475 129.469 137.167  0.00  0.00    +0.000 A 
ATOM     19  C   UNL     1     113.556 129.902 136.469  0.00  0.00    +0.000 A 
BRANCH  19  20
ATOM     20  O   UNL     1     114.040 130.569 136.451  0.00  0.00    +0.000 OA
ATOM     21  C   UNL     1     114.805 130.515 136.145  0.00  0.00    +0.000 C 
ENDBRANCH  19  20
ENDBRANCH   6  14
BRANCH   5  22
ATOM     22  O   UNL     1     110.956 128.734 136.688  0.00  0.00    +0.000 OA
BRANCH  22  29
ATOM     23  O   UNL     1     110.724 128.662 138.097  0.00  0.00    +0.000 OA
ATOM     24  O   UNL     1     108.641 129.970 137.820  0.00  0.00    +0.000 OA
ATOM     25  O   UNL     1     109.103 129.462 139.320  0.00  0.00    +0.000 OA
ATOM     26  C   UNL     1     109.798 129.352 137.255  0.00  0.00    +0.000 C 
ATOM     27  C   UNL     1     109.336 129.534 137.912  0.00  0.00    +0.000 C 
ATOM     28  C   UNL     1     109.566 129.281 138.662  0.00  0.00    +0.000 C 
ATOM     29  C   UNL     1     110.492 128.916 137.347  0.00  0.00    +0.000 C 
ATOM     30  C   UNL     1     110.260 128.844 138.754  0.00  0.00    +0.000 C 
ATOM     31  C   UNL     1     110.492 128.590 139.505  0.00  0.00    +0.000 C 
BRANCH  26  32
ATOM     32  O   UNL     1     109.568 129.606 136.504  0.00  0.00    +0.000 OA
BRANCH  32  37
ATOM     33  O   UNL     1     110.041 130.924 136.791  0.00  0.00    +0.000 OA
ATOM     34  O   UNL     1     108.842 130.165 135.131  0.00  0.00    +0.000 OA
ATOM     35  O   UNL     1     108.952 131.762 134.732  0.00  0.00    +0.000 OA
ATOM     36  O   UNL     1     109.788 132.800 135.705  0.00  0.00    +0.000 OA
ATOM     37  C   UNL     1     109.623 130.405 136.304  0.00  0.00    +0.000 C 
ATOM     38  C   UNL     1     109.260 130.685 135.618  0.00  0.00    +0.000 C 
ATOM     39  C   UNL     1     109.315 131.483 135.418  0.00  0.00    +0.000 C 
ATOM     40  C   UNL     1     109.733 132.002 135.905  0.00  0.00    +0.000 C 
ATOM     41  C   UNL     1     110.096 131.723 136.591  0.00  0.00    +0.000 C 
BRANCH  41  43
ATOM     42  O   UNL     1     111.336 132.208 137.106  0.00  0.00    +0.000 OA
ATOM     43  C   UNL     1     110.513 132.241 137.077  0.00  0.00    +0.000 C 
ENDBRANCH  41  43
ENDBRANCH  32  37
ENDBRANCH  26  32
ENDBRANCH  22  29
ENDBRANCH   5  22
BRANCH  10  44
ATOM     44  C   UNL     1     113.124 125.627 136.289  0.00  0.00    +0.000 C 
BRANCH  44  45
ATOM     45  C   UNL     1     113.574 125.265 136.878  0.00  0.00    +0.000 C 
ATOM     46  C   UNL     1     114.395 125.222 136.802  0.00  0.00    +0.000 C 
ATOM     47  C   UNL     1     114.845 124.859 137.391  0.00  0.00    +0.000 C 
ATOM     48  C   UNL     1     114.765 125.543 136.138  0.00  0.00    +0.000 C 
ENDBRANCH  44  45
ENDBRANCH  10  44
TORSDOF 9
ENDMDL
MODEL 3
REMARK VINA RESULT:      -9.8      1.390      2.576
REMARK  Name = 13916054
REMARK  9 active torsions:
REMARK  status: ('A' for Active; 'I' for Inactive)
REMARK    1  A    between atoms: O_1  and  C_16
REMARK    2  A    between atoms: O_1  and  C_18
REMARK    3  A    between atoms: O_4  and  C_21
REMARK    4  A    between atoms: O_4  and  C_28
REMARK    5  A    between atoms: O_15  and  C_44
REMARK    6  A    between atoms: C_25  and  C_27
REMARK    7  A    between atoms: C_29  and  C_33
REMARK    8  A    between atoms: C_34  and  C_37
REMARK    9  A    between atoms: C_37  and  C_43
REMARK                            x       y       z     vdW  Elec       q    Type
REMARK                         _______ _______ _______ _____ _____    ______ ____
ROOT
ATOM      1  O   UNL     1     111.637 127.653 137.683  0.00  0.00    +0.000 OA
ATOM      2  O   UNL     1     109.281 128.217 138.187  0.00  0.00    +0.000 OA
ATOM      3  O   UNL     1     109.047 126.895 138.713  0.00  0.00    +0.000 OA
ATOM      4  O   UNL     1     111.238 124.965 138.729  0.00  0.00    +0.000 OA
ATOM      5  C   UNL     1     110.562 128.593 137.677  0.00  0.00    +0.000 A 
ATOM      6  C   UNL     1     111.347 128.405 137.509  0.00  0.00    +0.000 A 
ATOM      7  C   UNL     1     110.066 128.029 138.019  0.00  0.00    +0.000 A 
ATOM      8  C   UNL     1     110.356 127.277 138.193  0.00  0.00    +0.000 A 
ATOM      9  C   UNL     1     111.143 127.088 138.025  0.00  0.00    +0.000 A 
ATOM     10  C   UNL     1     111.456 126.308 138.201  0.00  0.00    +0.000 A 
ATOM     11  C   UNL     1     109.831 126.698 138.548  0.00  0.00    +0.000 A 
ATOM     12  C   UNL     1     110.945 125.716 138.557  0.00  0.00    +0.000 A 
ATOM     13  C   UNL     1     110.127 125.912 138.732  0.00  0.00    +0.000 A 
ENDROOT
BRANCH   6  14
ATOM     14  C   UNL     1     111.843 128.970 137.167  0.00  0.00    +0.000 A 
ATOM     15  C   UNL     1     112.363 129.402 137.640  0.00  0.00    +0.000 A 
ATOM     16  C   UNL     1     111.820 129.101 136.354  0.00  0.00    +0.000 A 
ATOM     17  C   UNL     1     112.859 129.966 137.300  0.00  0.00    +0.000 A 
ATOM     18  C   UNL     1     112.316 129.665 136.012  0.00  0.00    +0.000 A 
ATOM     19  C   UNL     1     112.836 130.098 136.485  0.00  0.00    +0.000 A 
BRANCH  19  20
ATOM     20  O   UNL     1     113.332 130.662 136.145  0.00  0.00    +0.000 OA
ATOM     21  C   UNL     1     114.114 130.730 136.400  0.00  0.00    +0.000 C 
ENDBRANCH  19  20
ENDBRANCH   6  14
BRANCH   5  22
ATOM     22  O   UNL     1     110.272 129.346 137.503  0.00  0.00    +0.000 OA
BRANCH  22  29
ATOM     23  O   UNL     1     110.285 129.834 138.846  0.00  0.00    +0.000 OA
ATOM     24  O   UNL     1     108.226 131.130 138.395  0.00  0.00    +0.000 OA
ATOM     25  O   UNL     1     108.925 131.186 139.888  0.00  0.00    +0.000 OA
ATOM     26  C   UNL     1     109.249 130.239 137.949  0.00  0.00    +0.000 C 
ATOM     27  C   UNL     1     108.912 130.698 138.545  0.00  0.00    +0.000 C 
ATOM     28  C   UNL     1     109.261 130.726 139.292  0.00  0.00    +0.000 C 
ATOM     29  C   UNL     1     109.935 129.806 138.100  0.00  0.00    +0.000 C 
ATOM     30  C   UNL     1     109.948 130.294 139.442  0.00  0.00    +0.000 C 
ATOM     31  C   UNL     1     110.298 130.322 140.189  0.00  0.00    +0.000 C 
BRANCH  26  32
ATOM     32  O   UNL     1     108.899 130.210 137.202  0.00  0.00    +0.000 OA
BRANCH  32  37
ATOM     33  O   UNL     1     109.455 131.491 136.895  0.00  0.00    +0.000 OA
ATOM     34  O   UNL     1     108.157 130.179 135.729  0.00  0.00    +0.000 OA
ATOM     35  O   UNL     1     108.341 131.444 134.685  0.00  0.00    +0.000 OA
ATOM     36  O   UNL     1     109.268 132.740 135.115  0.00  0.00    +0.000 OA
ATOM     37  C   UNL     1     108.991 130.843 136.680  0.00  0.00    +0.000 C 
ATOM     38  C   UNL     1     108.621 130.827 135.944  0.00  0.00    +0.000 C 
ATOM     39  C   UNL     1     108.713 131.460 135.422  0.00  0.00    +0.000 C 
ATOM     40  C   UNL     1     109.176 132.107 135.637  0.00  0.00    +0.000 C 
ATOM     41  C   UNL     1     109.547 132.124 136.373  0.00  0.00    +0.000 C 
BRANCH  41  43
ATOM     42  O   UNL     1     110.819 132.676 136.715  0.00  0.00    +0.000 OA
ATOM     43  C   UNL     1     110.010 132.771 136.588  0.00  0.00    +0.000 C 
ENDBRANCH  41  43
ENDBRANCH  32  37
ENDBRANCH  26  32
ENDBRANCH  22  29
ENDBRANCH   5  22
BRANCH  10  44
ATOM     44  C   UNL     1     112.243 126.129 138.030  0.00  0.00    +0.000 C 
BRANCH  44  45
ATOM     45  C   UNL     1     112.423 125.596 137.426  0.00  0.00    +0.000 C 
ATOM     46  C   UNL     1     113.210 125.431 137.242  0.00  0.00    +0.000 C 
ATOM     47  C   UNL     1     113.390 124.898 136.639  0.00  0.00    +0.000 C 
ATOM     48  C   UNL     1     113.818 125.800 137.662  0.00  0.00    +0.000 C 
ENDBRANCH  44  45
ENDBRANCH  10  44
TORSDOF 9
ENDMDL
MODEL 4
REMARK VINA RESULT:      -9.6      1.965      2.883
REMARK  Name = 13916054
REMARK  9 active torsions:
REMARK  status: ('A' for Active; 'I' for Inactive)
REMARK    1  A    between atoms: O_1  and  C_16
REMARK    2  A    between atoms: O_1  and  C_18
REMARK    3  A    between atoms: O_4  and  C_21
REMARK    4  A    between atoms: O_4  and  C_28
REMARK    5  A    between atoms: O_15  and  C_44
REMARK    6  A    between atoms: C_25  and  C_27
REMARK    7  A    between atoms: C_29  and  C_33
REMARK    8  A    between atoms: C_34  and  C_37
REMARK    9  A    between atoms: C_37  and  C_43
REMARK                            x       y       z     vdW  Elec       q    Type
REMARK                         _______ _______ _______ _____ _____    ______ ____
ROOT
ATOM      1  O   UNL     1     112.472 126.385 138.325  0.00  0.00    +0.000 OA
ATOM      2  O   UNL     1     110.089 127.025 138.138  0.00  0.00    +0.000 OA
ATOM      3  O   UNL     1     109.871 126.028 137.119  0.00  0.00    +0.000 OA
ATOM      4  O   UNL     1     112.107 124.352 136.272  0.00  0.00    +0.000 OA
ATOM      5  C   UNL     1     111.375 127.203 138.735  0.00  0.00    +0.000 A 
ATOM      6  C   UNL     1     112.169 126.990 138.798  0.00  0.00    +0.000 A 
ATOM      7  C   UNL     1     110.883 126.812 138.200  0.00  0.00    +0.000 A 
ATOM      8  C   UNL     1     111.186 126.208 137.728  0.00  0.00    +0.000 A 
ATOM      9  C   UNL     1     111.981 125.994 137.790  0.00  0.00    +0.000 A 
ATOM     10  C   UNL     1     112.308 125.366 137.303  0.00  0.00    +0.000 A 
ATOM     11  C   UNL     1     110.664 125.808 137.175  0.00  0.00    +0.000 A 
ATOM     12  C   UNL     1     111.801 124.956 136.744  0.00  0.00    +0.000 A 
ATOM     13  C   UNL     1     110.974 125.177 136.679  0.00  0.00    +0.000 A 
ENDROOT
BRANCH   6  14
ATOM     14  C   UNL     1     112.661 127.380 139.333  0.00  0.00    +0.000 A 
ATOM     15  C   UNL     1     112.985 128.113 139.135  0.00  0.00    +0.000 A 
ATOM     16  C   UNL     1     112.829 127.039 140.064  0.00  0.00    +0.000 A 
ATOM     17  C   UNL     1     113.477 128.504 139.669  0.00  0.00    +0.000 A 
ATOM     18  C   UNL     1     113.321 127.430 140.599  0.00  0.00    +0.000 A 
ATOM     19  C   UNL     1     113.645 128.163 140.401  0.00  0.00    +0.000 A 
BRANCH  19  20
ATOM     20  O   UNL     1     114.137 128.554 140.935  0.00  0.00    +0.000 OA
ATOM     21  C   UNL     1     114.495 129.266 140.720  0.00  0.00    +0.000 C 
ENDBRANCH  19  20
ENDBRANCH   6  14
BRANCH   5  22
ATOM     22  O   UNL     1     111.072 127.807 139.208  0.00  0.00    +0.000 OA
BRANCH  22  29
ATOM     23  O   UNL     1     110.346 126.948 140.090  0.00  0.00    +0.000 OA
ATOM     24  O   UNL     1     108.590 128.675 140.327  0.00  0.00    +0.000 OA
ATOM     25  O   UNL     1     108.450 127.241 141.130  0.00  0.00    +0.000 OA
ATOM     26  C   UNL     1     109.830 128.241 139.768  0.00  0.00    +0.000 C 
ATOM     27  C   UNL     1     109.175 128.100 140.248  0.00  0.00    +0.000 C 
ATOM     28  C   UNL     1     109.105 127.383 140.650  0.00  0.00    +0.000 C 
ATOM     29  C   UNL     1     110.416 127.665 139.689  0.00  0.00    +0.000 C 
ATOM     30  C   UNL     1     109.691 126.807 140.571  0.00  0.00    +0.000 C 
ATOM     31  C   UNL     1     109.621 126.089 140.972  0.00  0.00    +0.000 C 
BRANCH  26  32
ATOM     32  O   UNL     1     109.901 128.958 139.366  0.00  0.00    +0.000 OA
BRANCH  32  37
ATOM     33  O   UNL     1     110.288 129.601 140.583  0.00  0.00    +0.000 OA
ATOM     34  O   UNL     1     110.009 130.400 138.571  0.00  0.00    +0.000 OA
ATOM     35  O   UNL     1     110.451 131.763 139.389  0.00  0.00    +0.000 OA
ATOM     36  O   UNL     1     110.784 131.684 141.003  0.00  0.00    +0.000 OA
ATOM     37  C   UNL     1     110.121 129.640 139.776  0.00  0.00    +0.000 C 
ATOM     38  C   UNL     1     110.176 130.361 139.379  0.00  0.00    +0.000 C 
ATOM     39  C   UNL     1     110.397 131.042 139.788  0.00  0.00    +0.000 C 
ATOM     40  C   UNL     1     110.563 131.003 140.594  0.00  0.00    +0.000 C 
ATOM     41  C   UNL     1     110.509 130.282 140.993  0.00  0.00    +0.000 C 
BRANCH  41  43
ATOM     42  O   UNL     1     111.352 129.852 142.062  0.00  0.00    +0.000 OA
ATOM     43  C   UNL     1     110.676 130.243 141.799  0.00  0.00    +0.000 C 
ENDBRANCH  41  43
ENDBRANCH  32  37
ENDBRANCH  26  32
ENDBRANCH  22  29
ENDBRANCH   5  22
BRANCH  10  44
ATOM     44  C   UNL     1     113.104 125.160 137.372  0.00  0.00    +0.000 C 
BRANCH  44  45
ATOM     45  C   UNL     1     113.630 125.336 136.762  0.00  0.00    +0.000 C 
ATOM     46  C   UNL     1     114.431 125.154 136.842  0.00  0.00    +0.000 C 
ATOM     47  C   UNL     1     114.957 125.330 136.232  0.00  0.00    +0.000 C 
ATOM     48  C   UNL     1     114.705 124.795 137.533  0.00  0.00    +0.000 C 
ENDBRANCH  44  45
ENDBRANCH  10  44
TORSDOF 9
ENDMDL
MODEL 5
REMARK VINA RESULT:      -9.6      2.039      2.853
REMARK  Name = 13916054
REMARK  9 active torsions:
REMARK  status: ('A' for Active; 'I' for Inactive)
REMARK    1  A    between atoms: O_1  and  C_16
REMARK    2  A    between atoms: O_1  and  C_18
REMARK    3  A    between atoms: O_4  and  C_21
REMARK    4  A    between atoms: O_4  and  C_28
REMARK    5  A    between atoms: O_15  and  C_44
REMARK    6  A    between atoms: C_25  and  C_27
REMARK    7  A    between atoms: C_29  and  C_33
REMARK    8  A    between atoms: C_34  and  C_37
REMARK    9  A    between atoms: C_37  and  C_43
REMARK                            x       y       z     vdW  Elec       q    Type
REMARK                         _______ _______ _______ _____ _____    ______ ____
ROOT
ATOM      1  O   UNL     1     111.286 126.372 137.783  0.00  0.00    +0.000 OA
ATOM      2  O   UNL     1     109.151 127.622 137.836  0.00  0.00    +0.000 OA
ATOM      3  O   UNL     1     108.774 127.091 136.550  0.00  0.00    +0.000 OA
ATOM      4  O   UNL     1     110.592 125.260 135.182  0.00  0.00    +0.000 OA
ATOM      5  C   UNL     1     110.393 127.267 138.447  0.00  0.00    +0.000 A 
ATOM      6  C   UNL     1     111.104 126.851 138.430  0.00  0.00    +0.000 A 
ATOM      7  C   UNL     1     109.862 127.205 137.819  0.00  0.00    +0.000 A 
ATOM      8  C   UNL     1     110.044 126.727 137.172  0.00  0.00    +0.000 A 
ATOM      9  C   UNL     1     110.756 126.309 137.154  0.00  0.00    +0.000 A 
ATOM     10  C   UNL     1     110.956 125.808 136.486  0.00  0.00    +0.000 A 
ATOM     11  C   UNL     1     109.484 126.670 136.523  0.00  0.00    +0.000 A 
ATOM     12  C   UNL     1     110.408 125.739 135.828  0.00  0.00    +0.000 A 
ATOM     13  C   UNL     1     109.667 126.173 135.846  0.00  0.00    +0.000 A 
ENDROOT
BRANCH   6  14
ATOM     14  C   UNL     1     111.635 126.912 139.059  0.00  0.00    +0.000 A 
ATOM     15  C   UNL     1     111.524 126.456 139.737  0.00  0.00    +0.000 A 
ATOM     16  C   UNL     1     112.276 127.429 139.009  0.00  0.00    +0.000 A 
ATOM     17  C   UNL     1     112.054 126.517 140.366  0.00  0.00    +0.000 A 
ATOM     18  C   UNL     1     112.806 127.490 139.638  0.00  0.00    +0.000 A 
ATOM     19  C   UNL     1     112.696 127.034 140.317  0.00  0.00    +0.000 A 
BRANCH  19  20
ATOM     20  O   UNL     1     113.226 127.095 140.946  0.00  0.00    +0.000 OA
ATOM     21  C   UNL     1     113.976 127.418 140.823  0.00  0.00    +0.000 C 
ENDBRANCH  19  20
ENDBRANCH   6  14
BRANCH   5  22
ATOM     22  O   UNL     1     110.211 127.746 139.094  0.00  0.00    +0.000 OA
BRANCH  22  29
ATOM     23  O   UNL     1     110.451 128.992 138.438  0.00  0.00    +0.000 OA
ATOM     24  O   UNL     1     108.598 130.021 139.716  0.00  0.00    +0.000 OA
ATOM     25  O   UNL     1     109.456 130.925 138.634  0.00  0.00    +0.000 OA
ATOM     26  C   UNL     1     109.405 128.884 139.405  0.00  0.00    +0.000 C 
ATOM     27  C   UNL     1     109.216 129.678 139.290  0.00  0.00    +0.000 C 
ATOM     28  C   UNL     1     109.644 130.130 138.750  0.00  0.00    +0.000 C 
ATOM     29  C   UNL     1     110.022 128.541 138.979  0.00  0.00    +0.000 C 
ATOM     30  C   UNL     1     110.262 129.787 138.324  0.00  0.00    +0.000 C 
ATOM     31  C   UNL     1     110.691 130.239 137.782  0.00  0.00    +0.000 C 
BRANCH  26  32
ATOM     32  O   UNL     1     108.976 128.432 139.946  0.00  0.00    +0.000 OA
BRANCH  32  37
ATOM     33  O   UNL     1     109.709 129.025 141.021  0.00  0.00    +0.000 OA
ATOM     34  O   UNL     1     108.166 127.479 141.024  0.00  0.00    +0.000 OA
ATOM     35  O   UNL     1     108.493 127.596 142.637  0.00  0.00    +0.000 OA
ATOM     36  O   UNL     1     109.630 128.665 143.173  0.00  0.00    +0.000 OA
ATOM     37  C   UNL     1     109.140 128.490 140.753  0.00  0.00    +0.000 C 
ATOM     38  C   UNL     1     108.735 128.014 141.292  0.00  0.00    +0.000 C 
ATOM     39  C   UNL     1     108.899 128.073 142.098  0.00  0.00    +0.000 C 
ATOM     40  C   UNL     1     109.467 128.607 142.366  0.00  0.00    +0.000 C 
ATOM     41  C   UNL     1     109.872 129.083 141.828  0.00  0.00    +0.000 C 
BRANCH  41  43
ATOM     42  O   UNL     1     111.240 129.475 141.953  0.00  0.00    +0.000 OA
ATOM     43  C   UNL     1     110.440 129.617 142.095  0.00  0.00    +0.000 C 
ENDBRANCH  41  43
ENDBRANCH  32  37
ENDBRANCH  26  32
ENDBRANCH  22  29
ENDBRANCH   5  22
BRANCH  10  44
ATOM     44  C   UNL     1     111.670 125.395 136.476  0.00  0.00    +0.000 C 
BRANCH  44  45
ATOM     45  C   UNL     1     111.678 124.581 136.610  0.00  0.00    +0.000 C 
ATOM     46  C   UNL     1     112.395 124.174 136.640  0.00  0.00    +0.000 C 
ATOM     47  C   UNL     1     112.403 123.360 136.773  0.00  0.00    +0.000 C 
ATOM     48  C   UNL     1     113.105 124.582 136.537  0.00  0.00    +0.000 C 
ENDBRANCH  44  45
ENDBRANCH  10  44
TORSDOF 9
ENDMDL
MODEL 6
REMARK VINA RESULT:      -9.5      1.628      5.449
REMARK  Name = 13916054
REMARK  9 active torsions:
REMARK  status: ('A' for Active; 'I' for Inactive)
REMARK    1  A    between atoms: O_1  and  C_16
REMARK    2  A    between atoms: O_1  and  C_18
REMARK    3  A    between atoms: O_4  and  C_21
REMARK    4  A    between atoms: O_4  and  C_28
REMARK    5  A    between atoms: O_15  and  C_44
REMARK    6  A    between atoms: C_25  and  C_27
REMARK    7  A    between atoms: C_29  and  C_33
REMARK    8  A    between atoms: C_34  and  C_37
REMARK    9  A    between atoms: C_37  and  C_43
REMARK                            x       y       z     vdW  Elec       q    Type
REMARK                         _______ _______ _______ _____ _____    ______ ____
ROOT
ATOM      1  O   UNL     1     111.004 130.182 137.706  0.00  0.00    +0.000 OA
ATOM      2  O   UNL     1     109.996 128.289 138.940  0.00  0.00    +0.000 OA
ATOM      3  O   UNL     1     108.959 129.144 139.462  0.00  0.00    +0.000 OA
ATOM      4  O   UNL     1     108.941 131.969 138.723  0.00  0.00    +0.000 OA
ATOM      5  C   UNL     1     111.009 128.802 138.071  0.00  0.00    +0.000 A 
ATOM      6  C   UNL     1     111.344 129.432 137.660  0.00  0.00    +0.000 A 
ATOM      7  C   UNL     1     110.332 128.920 138.529  0.00  0.00    +0.000 A 
ATOM      8  C   UNL     1     109.992 129.670 138.575  0.00  0.00    +0.000 A 
ATOM      9  C   UNL     1     110.328 130.302 138.164  0.00  0.00    +0.000 A 
ATOM     10  C   UNL     1     109.983 131.088 138.204  0.00  0.00    +0.000 A 
ATOM     11  C   UNL     1     109.288 129.781 139.054  0.00  0.00    +0.000 A 
ATOM     12  C   UNL     1     109.279 131.217 138.678  0.00  0.00    +0.000 A 
ATOM     13  C   UNL     1     108.929 130.560 139.107  0.00  0.00    +0.000 A 
ENDROOT
BRANCH   6  14
ATOM     14  C   UNL     1     112.021 129.314 137.203  0.00  0.00    +0.000 A 
ATOM     15  C   UNL     1     112.764 129.494 137.512  0.00  0.00    +0.000 A 
ATOM     16  C   UNL     1     111.954 129.017 136.437  0.00  0.00    +0.000 A 
ATOM     17  C   UNL     1     113.441 129.376 137.056  0.00  0.00    +0.000 A 
ATOM     18  C   UNL     1     112.631 128.899 135.979  0.00  0.00    +0.000 A 
ATOM     19  C   UNL     1     113.374 129.078 136.289  0.00  0.00    +0.000 A 
BRANCH  19  20
ATOM     20  O   UNL     1     114.051 128.961 135.832  0.00  0.00    +0.000 OA
ATOM     21  C   UNL     1     114.088 129.261 135.064  0.00  0.00    +0.000 C 
ENDBRANCH  19  20
ENDBRANCH   6  14
BRANCH   5  22
ATOM     22  O   UNL     1     111.349 128.051 138.025  0.00  0.00    +0.000 OA
BRANCH  22  29
ATOM     23  O   UNL     1     111.921 128.063 139.335  0.00  0.00    +0.000 OA
ATOM     24  O   UNL     1     111.488 125.635 139.545  0.00  0.00    +0.000 OA
ATOM     25  O   UNL     1     112.205 126.455 140.784  0.00  0.00    +0.000 OA
ATOM     26  C   UNL     1     111.419 126.843 138.785  0.00  0.00    +0.000 C 
ATOM     27  C   UNL     1     111.633 126.444 139.475  0.00  0.00    +0.000 C 
ATOM     28  C   UNL     1     111.991 126.854 140.094  0.00  0.00    +0.000 C 
ATOM     29  C   UNL     1     111.563 127.652 138.715  0.00  0.00    +0.000 C 
ATOM     30  C   UNL     1     112.135 127.663 140.024  0.00  0.00    +0.000 C 
ATOM     31  C   UNL     1     112.493 128.074 140.644  0.00  0.00    +0.000 C 
BRANCH  26  32
ATOM     32  O   UNL     1     111.060 126.433 138.165  0.00  0.00    +0.000 OA
BRANCH  32  37
ATOM     33  O   UNL     1     112.330 125.895 137.788  0.00  0.00    +0.000 OA
ATOM     34  O   UNL     1     110.339 125.583 136.948  0.00  0.00    +0.000 OA
ATOM     35  O   UNL     1     111.248 124.621 135.963  0.00  0.00    +0.000 OA
ATOM     36  O   UNL     1     112.877 124.508 136.195  0.00  0.00    +0.000 OA
ATOM     37  C   UNL     1     111.515 125.952 137.673  0.00  0.00    +0.000 C 
ATOM     38  C   UNL     1     111.155 125.527 137.064  0.00  0.00    +0.000 C 
ATOM     39  C   UNL     1     111.609 125.045 136.572  0.00  0.00    +0.000 C 
ATOM     40  C   UNL     1     112.423 124.989 136.688  0.00  0.00    +0.000 C 
ATOM     41  C   UNL     1     112.784 125.413 137.296  0.00  0.00    +0.000 C 
BRANCH  41  43
ATOM     42  O   UNL     1     114.091 125.980 137.190  0.00  0.00    +0.000 OA
ATOM     43  C   UNL     1     113.599 125.357 137.412  0.00  0.00    +0.000 C 
ENDBRANCH  41  43
ENDBRANCH  32  37
ENDBRANCH  26  32
ENDBRANCH  22  29
ENDBRANCH   5  22
BRANCH  10  44
ATOM     44  C   UNL     1     110.326 131.713 137.789  0.00  0.00    +0.000 C 
BRANCH  44  45
ATOM     45  C   UNL     1     109.946 132.027 137.128  0.00  0.00    +0.000 C 
ATOM     46  C   UNL     1     110.295 132.643 136.705  0.00  0.00    +0.000 C 
ATOM     47  C   UNL     1     109.915 132.957 136.043  0.00  0.00    +0.000 C 
ATOM     48  C   UNL     1     111.026 132.945 136.943  0.00  0.00    +0.000 C 
ENDBRANCH  44  45
ENDBRANCH  10  44
TORSDOF 9
ENDMDL
MODEL 7
REMARK VINA RESULT:      -9.5      1.904      2.833
REMARK  Name = 13916054
REMARK  9 active torsions:
REMARK  status: ('A' for Active; 'I' for Inactive)
REMARK    1  A    between atoms: O_1  and  C_16
REMARK    2  A    between atoms: O_1  and  C_18
REMARK    3  A    between atoms: O_4  and  C_21
REMARK    4  A    between atoms: O_4  and  C_28
REMARK    5  A    between atoms: O_15  and  C_44
REMARK    6  A    between atoms: C_25  and  C_27
REMARK    7  A    between atoms: C_29  and  C_33
REMARK    8  A    between atoms: C_34  and  C_37
REMARK    9  A    between atoms: C_37  and  C_43
REMARK                            x       y       z     vdW  Elec       q    Type
REMARK                         _______ _______ _______ _____ _____    ______ ____
ROOT
ATOM      1  O   UNL     1     111.695 126.444 137.824  0.00  0.00    +0.000 OA
ATOM      2  O   UNL     1     110.721 128.656 137.295  0.00  0.00    +0.000 OA
ATOM      3  O   UNL     1     110.063 128.120 136.129  0.00  0.00    +0.000 OA
ATOM      4  O   UNL     1     110.396 125.291 135.486  0.00  0.00    +0.000 OA
ATOM      5  C   UNL     1     111.529 127.828 138.134  0.00  0.00    +0.000 A 
ATOM      6  C   UNL     1     111.853 127.091 138.310  0.00  0.00    +0.000 A 
ATOM      7  C   UNL     1     111.045 127.919 137.471  0.00  0.00    +0.000 A 
ATOM      8  C   UNL     1     110.887 127.271 136.985  0.00  0.00    +0.000 A 
ATOM      9  C   UNL     1     111.212 126.533 137.161  0.00  0.00    +0.000 A 
ATOM     10  C   UNL     1     111.055 125.852 136.662  0.00  0.00    +0.000 A 
ATOM     11  C   UNL     1     110.383 127.378 136.298  0.00  0.00    +0.000 A 
ATOM     12  C   UNL     1     110.553 125.940 135.971  0.00  0.00    +0.000 A 
ATOM     13  C   UNL     1     110.214 126.707 135.787  0.00  0.00    +0.000 A 
ENDROOT
BRANCH   6  14
ATOM     14  C   UNL     1     112.336 127.000 138.973  0.00  0.00    +0.000 A 
ATOM     15  C   UNL     1     111.999 126.862 139.713  0.00  0.00    +0.000 A 
ATOM     16  C   UNL     1     113.156 127.047 138.896  0.00  0.00    +0.000 A 
ATOM     17  C   UNL     1     112.481 126.770 140.376  0.00  0.00    +0.000 A 
ATOM     18  C   UNL     1     113.639 126.956 139.559  0.00  0.00    +0.000 A 
ATOM     19  C   UNL     1     113.301 126.818 140.299  0.00  0.00    +0.000 A 
BRANCH  19  20
ATOM     20  O   UNL     1     113.783 126.727 140.962  0.00  0.00    +0.000 OA
ATOM     21  C   UNL     1     114.552 127.028 140.957  0.00  0.00    +0.000 C 
ENDBRANCH  19  20
ENDBRANCH   6  14
BRANCH   5  22
ATOM     22  O   UNL     1     111.687 128.475 138.620  0.00  0.00    +0.000 OA
BRANCH  22  29
ATOM     23  O   UNL     1     112.615 129.103 137.733  0.00  0.00    +0.000 OA
ATOM     24  O   UNL     1     111.821 131.326 138.478  0.00  0.00    +0.000 OA
ATOM     25  O   UNL     1     113.014 131.213 137.343  0.00  0.00    +0.000 OA
ATOM     26  C   UNL     1     111.754 129.901 138.549  0.00  0.00    +0.000 C 
ATOM     27  C   UNL     1     112.086 130.585 138.230  0.00  0.00    +0.000 C 
ATOM     28  C   UNL     1     112.682 130.529 137.663  0.00  0.00    +0.000 C 
ATOM     29  C   UNL     1     112.019 129.160 138.301  0.00  0.00    +0.000 C 
ATOM     30  C   UNL     1     112.946 129.788 137.414  0.00  0.00    +0.000 C 
ATOM     31  C   UNL     1     113.543 129.731 136.847  0.00  0.00    +0.000 C 
BRANCH  26  32
ATOM     32  O   UNL     1     111.158 129.957 139.116  0.00  0.00    +0.000 OA
BRANCH  32  37
ATOM     33  O   UNL     1     112.137 130.135 140.143  0.00  0.00    +0.000 OA
ATOM     34  O   UNL     1     109.964 130.337 140.190  0.00  0.00    +0.000 OA
ATOM     35  O   UNL     1     110.346 130.704 141.753  0.00  0.00    +0.000 OA
ATOM     36  O   UNL     1     111.921 130.692 142.242  0.00  0.00    +0.000 OA
ATOM     37  C   UNL     1     111.349 130.141 139.898  0.00  0.00    +0.000 C 
ATOM     38  C   UNL     1     110.752 130.331 140.435  0.00  0.00    +0.000 C 
ATOM     39  C   UNL     1     110.943 130.515 141.216  0.00  0.00    +0.000 C 
ATOM     40  C   UNL     1     111.731 130.509 141.460  0.00  0.00    +0.000 C 
ATOM     41  C   UNL     1     112.328 130.319 140.924  0.00  0.00    +0.000 C 
BRANCH  41  43
ATOM     42  O   UNL     1     113.610 130.945 140.981  0.00  0.00    +0.000 OA
ATOM     43  C   UNL     1     113.116 130.313 141.168  0.00  0.00    +0.000 C 
ENDBRANCH  41  43
ENDBRANCH  32  37
ENDBRANCH  26  32
ENDBRANCH  22  29
ENDBRANCH   5  22
BRANCH  10  44
ATOM     44  C   UNL     1     111.384 125.118 136.846  0.00  0.00    +0.000 C 
BRANCH  44  45
ATOM     45  C   UNL     1     112.055 124.855 136.446  0.00  0.00    +0.000 C 
ATOM     46  C   UNL     1     112.392 124.127 136.639  0.00  0.00    +0.000 C 
ATOM     47  C   UNL     1     113.064 123.864 136.239  0.00  0.00    +0.000 C 
ATOM     48  C   UNL     1     112.057 123.662 137.233  0.00  0.00    +0.000 C 
ENDBRANCH  44  45
ENDBRANCH  10  44
TORSDOF 9
ENDMDL
MODEL 8
REMARK VINA RESULT:      -9.3      1.799      5.883
REMARK  Name = 13916054
REMARK  9 active torsions:
REMARK  status: ('A' for Active; 'I' for Inactive)
REMARK    1  A    between atoms: O_1  and  C_16
REMARK    2  A    between atoms: O_1  and  C_18
REMARK    3  A    between atoms: O_4  and  C_21
REMARK    4  A    between atoms: O_4  and  C_28
REMARK    5  A    between atoms: O_15  and  C_44
REMARK    6  A    between atoms: C_25  and  C_27
REMARK    7  A    between atoms: C_29  and  C_33
REMARK    8  A    between atoms: C_34  and  C_37
REMARK    9  A    between atoms: C_37  and  C_43
REMARK                            x       y       z     vdW  Elec       q    Type
REMARK                         _______ _______ _______ _____ _____    ______ ____
ROOT
ATOM      1  O   UNL     1     110.673 129.476 136.389  0.00  0.00    +0.000 OA
ATOM      2  O   UNL     1     112.525 129.026 137.967  0.00  0.00    +0.000 OA
ATOM      3  O   UNL     1     112.708 130.438 138.200  0.00  0.00    +0.000 OA
ATOM      4  O   UNL     1     110.983 132.341 136.811  0.00  0.00    +0.000 OA
ATOM      5  C   UNL     1     111.519 128.549 137.071  0.00  0.00    +0.000 A 
ATOM      6  C   UNL     1     110.902 128.699 136.545  0.00  0.00    +0.000 A 
ATOM      7  C   UNL     1     111.908 129.176 137.441  0.00  0.00    +0.000 A 
ATOM      8  C   UNL     1     111.679 129.953 137.285  0.00  0.00    +0.000 A 
ATOM      9  C   UNL     1     111.061 130.103 136.758  0.00  0.00    +0.000 A 
ATOM     10  C   UNL     1     110.813 130.908 136.587  0.00  0.00    +0.000 A 
ATOM     11  C   UNL     1     112.091 130.597 137.676  0.00  0.00    +0.000 A 
ATOM     12  C   UNL     1     111.214 131.565 136.969  0.00  0.00    +0.000 A 
ATOM     13  C   UNL     1     111.857 131.409 137.517  0.00  0.00    +0.000 A 
ENDROOT
BRANCH   6  14
ATOM     14  C   UNL     1     110.513 128.073 136.175  0.00  0.00    +0.000 A 
ATOM     15  C   UNL     1     109.813 127.776 136.495  0.00  0.00    +0.000 A 
ATOM     16  C   UNL     1     110.824 127.743 135.486  0.00  0.00    +0.000 A 
ATOM     17  C   UNL     1     109.423 127.150 136.126  0.00  0.00    +0.000 A 
ATOM     18  C   UNL     1     110.435 127.116 135.116  0.00  0.00    +0.000 A 
ATOM     19  C   UNL     1     109.734 126.820 135.436  0.00  0.00    +0.000 A 
BRANCH  19  20
ATOM     20  O   UNL     1     109.345 126.193 135.067  0.00  0.00    +0.000 OA
ATOM     21  C   UNL     1     109.772 125.652 134.612  0.00  0.00    +0.000 C 
ENDBRANCH  19  20
ENDBRANCH   6  14
BRANCH   5  22
ATOM     22  O   UNL     1     111.748 127.772 137.227  0.00  0.00    +0.000 OA
BRANCH  22  29
ATOM     23  O   UNL     1     111.167 127.706 138.531  0.00  0.00    +0.000 OA
ATOM     24  O   UNL     1     113.021 126.249 139.283  0.00  0.00    +0.000 OA
ATOM     25  O   UNL     1     111.822 126.668 140.336  0.00  0.00    +0.000 OA
ATOM     26  C   UNL     1     112.385 127.010 138.256  0.00  0.00    +0.000 C 
ATOM     27  C   UNL     1     112.403 126.735 139.032  0.00  0.00    +0.000 C 
ATOM     28  C   UNL     1     111.804 126.944 139.559  0.00  0.00    +0.000 C 
ATOM     29  C   UNL     1     111.767 127.496 138.005  0.00  0.00    +0.000 C 
ATOM     30  C   UNL     1     111.186 127.430 139.308  0.00  0.00    +0.000 C 
ATOM     31  C   UNL     1     110.586 127.639 139.835  0.00  0.00    +0.000 C 
BRANCH  26  32
ATOM     32  O   UNL     1     112.984 126.801 137.729  0.00  0.00    +0.000 OA
BRANCH  32  37
ATOM     33  O   UNL     1     112.334 125.553 137.476  0.00  0.00    +0.000 OA
ATOM     34  O   UNL     1     114.286 126.302 136.846  0.00  0.00    +0.000 OA
ATOM     35  O   UNL     1     114.288 124.805 136.153  0.00  0.00    +0.000 OA
ATOM     36  O   UNL     1     112.987 123.807 136.342  0.00  0.00    +0.000 OA
ATOM     37  C   UNL     1     112.985 126.053 137.382  0.00  0.00    +0.000 C 
ATOM     38  C   UNL     1     113.636 125.803 136.941  0.00  0.00    +0.000 C 
ATOM     39  C   UNL     1     113.636 125.054 136.594  0.00  0.00    +0.000 C 
ATOM     40  C   UNL     1     112.987 124.555 136.688  0.00  0.00    +0.000 C 
ATOM     41  C   UNL     1     112.335 124.805 137.129  0.00  0.00    +0.000 C 
BRANCH  41  43
ATOM     42  O   UNL     1     111.546 123.944 137.951  0.00  0.00    +0.000 OA
ATOM     43  C   UNL     1     111.685 124.306 137.224  0.00  0.00    +0.000 C 
ENDBRANCH  41  43
ENDBRANCH  32  37
ENDBRANCH  26  32
ENDBRANCH  22  29
ENDBRANCH   5  22
BRANCH  10  44
ATOM     44  C   UNL     1     110.195 131.049 136.060  0.00  0.00    +0.000 C 
BRANCH  44  45
ATOM     45  C   UNL     1     109.477 131.348 136.335  0.00  0.00    +0.000 C 
ATOM     46  C   UNL     1     108.848 131.456 135.814  0.00  0.00    +0.000 C 
ATOM     47  C   UNL     1     108.130 131.756 136.089  0.00  0.00    +0.000 C 
ATOM     48  C   UNL     1     108.935 131.264 135.016  0.00  0.00    +0.000 C 
ENDBRANCH  44  45
ENDBRANCH  10  44
TORSDOF 9
ENDMDL
