MODEL 1
REMARK VINA RESULT:      -8.7      0.000      0.000
REMARK  Name = null
REMARK  3 active torsions:
REMARK  status: ('A' for Active; 'I' for Inactive)
REMARK    1  A    between atoms: O_2  and  C_3
REMARK    2  A    between atoms: C_6  and  C_9
REMARK    3  A    between atoms: C_18  and  O_20
REMARK                            x       y       z     vdW  Elec       q    Type
REMARK                         _______ _______ _______ _____ _____    ______ ____
ROOT
ATOM      1  C   UNL     1     103.955 123.714 138.645  0.00  0.00    +0.000 A 
ATOM      2  C   UNL     1     103.135 123.795 138.701  0.00  0.00    +0.000 A 
ATOM      3  C   UNL     1     102.659 123.627 138.048  0.00  0.00    +0.000 A 
ATOM      4  O   UNL     1     101.840 123.707 138.105  0.00  0.00    +0.000 OA
ATOM      5  C   UNL     1     103.001 123.379 137.339  0.00  0.00    +0.000 A 
ATOM      6  C   UNL     1     103.821 123.298 137.283  0.00  0.00    +0.000 A 
ATOM      7  O   UNL     1     104.297 123.466 137.936  0.00  0.00    +0.000 OA
ATOM      8  C   UNL     1     104.163 123.051 136.575  0.00  0.00    +0.000 A 
ATOM      9  C   UNL     1     103.687 122.883 135.923  0.00  0.00    +0.000 A 
ATOM     10  C   UNL     1     102.867 122.963 135.980  0.00  0.00    +0.000 A 
ATOM     11  C   UNL     1     102.525 123.211 136.688  0.00  0.00    +0.000 A 
ENDROOT
BRANCH   1  15
ATOM     12  C   UNL     1     105.384 124.218 140.601  0.00  0.00    +0.000 A 
ATOM     13  C   UNL     1     105.309 124.770 139.992  0.00  0.00    +0.000 A 
ATOM     14  C   UNL     1     104.833 124.601 139.340  0.00  0.00    +0.000 A 
ATOM     15  C   UNL     1     104.431 123.882 139.297  0.00  0.00    +0.000 A 
ATOM     16  C   UNL     1     104.507 123.331 139.905  0.00  0.00    +0.000 A 
ATOM     17  C   UNL     1     104.983 123.498 140.558  0.00  0.00    +0.000 A 
BRANCH  12  19
ATOM     18  C   UNL     1     106.682 124.417 141.166  0.00  0.00    +0.000 C 
ATOM     19  O   UNL     1     105.861 124.386 141.253  0.00  0.00    +0.000 OA
ENDBRANCH  12  19
ENDBRANCH   1  15
BRANCH  10  20
ATOM     20  O   UNL     1     102.391 122.795 135.327  0.00  0.00    +0.000 OA
ATOM     21  C   UNL     1     102.517 123.186 134.612  0.00  0.00    +0.000 C 
ENDBRANCH  10  20
TORSDOF 3
ENDMDL
MODEL 2
REMARK VINA RESULT:      -7.9      6.987      8.479
REMARK  Name = null
REMARK  3 active torsions:
REMARK  status: ('A' for Active; 'I' for Inactive)
REMARK    1  A    between atoms: O_2  and  C_3
REMARK    2  A    between atoms: C_6  and  C_9
REMARK    3  A    between atoms: C_18  and  O_20
REMARK                            x       y       z     vdW  Elec       q    Type
REMARK                         _______ _______ _______ _____ _____    ______ ____
ROOT
ATOM      1  C   UNL     1     102.428 130.754 141.532  0.00  0.00    +0.000 A 
ATOM      2  C   UNL     1     102.309 130.364 140.813  0.00  0.00    +0.000 A 
ATOM      3  C   UNL     1     102.735 129.679 140.641  0.00  0.00    +0.000 A 
ATOM      4  O   UNL     1     102.617 129.289 139.923  0.00  0.00    +0.000 OA
ATOM      5  C   UNL     1     103.280 129.383 141.185  0.00  0.00    +0.000 A 
ATOM      6  C   UNL     1     103.399 129.772 141.904  0.00  0.00    +0.000 A 
ATOM      7  O   UNL     1     102.973 130.458 142.076  0.00  0.00    +0.000 OA
ATOM      8  C   UNL     1     103.943 129.477 142.448  0.00  0.00    +0.000 A 
ATOM      9  C   UNL     1     104.369 128.792 142.275  0.00  0.00    +0.000 A 
ATOM     10  C   UNL     1     104.250 128.403 141.557  0.00  0.00    +0.000 A 
ATOM     11  C   UNL     1     103.706 128.698 141.012  0.00  0.00    +0.000 A 
ENDROOT
BRANCH   1  15
ATOM     12  C   UNL     1     101.149 132.808 142.050  0.00  0.00    +0.000 A 
ATOM     13  C   UNL     1     100.815 132.067 142.194  0.00  0.00    +0.000 A 
ATOM     14  C   UNL     1     101.242 131.382 142.021  0.00  0.00    +0.000 A 
ATOM     15  C   UNL     1     102.002 131.438 141.704  0.00  0.00    +0.000 A 
ATOM     16  C   UNL     1     102.335 132.178 141.561  0.00  0.00    +0.000 A 
ATOM     17  C   UNL     1     101.909 132.864 141.733  0.00  0.00    +0.000 A 
BRANCH  12  19
ATOM     18  C   UNL     1     100.710 134.118 141.684  0.00  0.00    +0.000 C 
ATOM     19  O   UNL     1     100.723 133.492 142.223  0.00  0.00    +0.000 OA
ENDBRANCH  12  19
ENDBRANCH   1  15
BRANCH  10  20
ATOM     20  O   UNL     1     104.677 127.717 141.384  0.00  0.00    +0.000 OA
ATOM     21  C   UNL     1     105.205 127.410 141.937  0.00  0.00    +0.000 C 
ENDBRANCH  10  20
TORSDOF 3
ENDMDL
MODEL 3
REMARK VINA RESULT:      -7.8      0.869      4.703
REMARK  Name = null
REMARK  3 active torsions:
REMARK  status: ('A' for Active; 'I' for Inactive)
REMARK    1  A    between atoms: O_2  and  C_3
REMARK    2  A    between atoms: C_6  and  C_9
REMARK    3  A    between atoms: C_18  and  O_20
REMARK                            x       y       z     vdW  Elec       q    Type
REMARK                         _______ _______ _______ _____ _____    ______ ____
ROOT
ATOM      1  C   UNL     1     104.290 123.763 138.640  0.00  0.00    +0.000 A 
ATOM      2  C   UNL     1     104.787 124.420 138.581  0.00  0.00    +0.000 A 
ATOM      3  C   UNL     1     105.249 124.645 139.227  0.00  0.00    +0.000 A 
ATOM      4  O   UNL     1     105.746 125.301 139.169  0.00  0.00    +0.000 OA
ATOM      5  C   UNL     1     105.214 124.216 139.931  0.00  0.00    +0.000 A 
ATOM      6  C   UNL     1     104.717 123.559 139.989  0.00  0.00    +0.000 A 
ATOM      7  O   UNL     1     104.255 123.333 139.343  0.00  0.00    +0.000 OA
ATOM      8  C   UNL     1     104.682 123.130 140.692  0.00  0.00    +0.000 A 
ATOM      9  C   UNL     1     105.143 123.356 141.337  0.00  0.00    +0.000 A 
ATOM     10  C   UNL     1     105.641 124.013 141.278  0.00  0.00    +0.000 A 
ATOM     11  C   UNL     1     105.676 124.442 140.575  0.00  0.00    +0.000 A 
ENDROOT
BRANCH   1  15
ATOM     12  C   UNL     1     102.905 123.085 136.704  0.00  0.00    +0.000 A 
ATOM     13  C   UNL     1     103.725 122.987 136.680  0.00  0.00    +0.000 A 
ATOM     14  C   UNL     1     104.186 123.213 137.325  0.00  0.00    +0.000 A 
ATOM     15  C   UNL     1     103.828 123.537 137.995  0.00  0.00    +0.000 A 
ATOM     16  C   UNL     1     103.010 123.634 138.019  0.00  0.00    +0.000 A 
ATOM     17  C   UNL     1     102.548 123.408 137.374  0.00  0.00    +0.000 A 
BRANCH  12  19
ATOM     18  C   UNL     1     102.680 123.060 135.293  0.00  0.00    +0.000 C 
ATOM     19  O   UNL     1     102.444 122.858 136.059  0.00  0.00    +0.000 OA
ENDBRANCH  12  19
ENDBRANCH   1  15
BRANCH  10  20
ATOM     20  O   UNL     1     106.102 124.238 141.924  0.00  0.00    +0.000 OA
ATOM     21  C   UNL     1     105.758 124.634 142.560  0.00  0.00    +0.000 C 
ENDBRANCH  10  20
TORSDOF 3
ENDMDL
MODEL 4
REMARK VINA RESULT:      -7.5      7.722      8.599
REMARK  Name = null
REMARK  3 active torsions:
REMARK  status: ('A' for Active; 'I' for Inactive)
REMARK    1  A    between atoms: O_2  and  C_3
REMARK    2  A    between atoms: C_6  and  C_9
REMARK    3  A    between atoms: C_18  and  O_20
REMARK                            x       y       z     vdW  Elec       q    Type
REMARK                         _______ _______ _______ _____ _____    ______ ____
ROOT
ATOM      1  C   UNL     1     104.633 124.479 146.789  0.00  0.00    +0.000 A 
ATOM      2  C   UNL     1     104.029 124.897 147.167  0.00  0.00    +0.000 A 
ATOM      3  C   UNL     1     103.242 124.674 147.056  0.00  0.00    +0.000 A 
ATOM      4  O   UNL     1     102.639 125.092 147.434  0.00  0.00    +0.000 OA
ATOM      5  C   UNL     1     103.058 124.034 146.569  0.00  0.00    +0.000 A 
ATOM      6  C   UNL     1     103.662 123.616 146.191  0.00  0.00    +0.000 A 
ATOM      7  O   UNL     1     104.449 123.839 146.301  0.00  0.00    +0.000 OA
ATOM      8  C   UNL     1     103.478 122.977 145.704  0.00  0.00    +0.000 A 
ATOM      9  C   UNL     1     102.692 122.755 145.594  0.00  0.00    +0.000 A 
ATOM     10  C   UNL     1     102.088 123.173 145.973  0.00  0.00    +0.000 A 
ATOM     11  C   UNL     1     102.272 123.812 146.459  0.00  0.00    +0.000 A 
ENDROOT
BRANCH   1  15
ATOM     12  C   UNL     1     106.993 125.146 147.118  0.00  0.00    +0.000 A 
ATOM     13  C   UNL     1     106.619 125.294 146.397  0.00  0.00    +0.000 A 
ATOM     14  C   UNL     1     105.832 125.072 146.288  0.00  0.00    +0.000 A 
ATOM     15  C   UNL     1     105.419 124.701 146.898  0.00  0.00    +0.000 A 
ATOM     16  C   UNL     1     105.793 124.553 147.618  0.00  0.00    +0.000 A 
ATOM     17  C   UNL     1     106.580 124.776 147.728  0.00  0.00    +0.000 A 
BRANCH  12  19
ATOM     18  C   UNL     1     108.181 125.142 147.911  0.00  0.00    +0.000 C 
ATOM     19  O   UNL     1     107.780 125.369 147.227  0.00  0.00    +0.000 OA
ENDBRANCH  12  19
ENDBRANCH   1  15
BRANCH  10  20
ATOM     20  O   UNL     1     101.301 122.950 145.862  0.00  0.00    +0.000 OA
ATOM     21  C   UNL     1     101.032 122.741 145.112  0.00  0.00    +0.000 C 
ENDBRANCH  10  20
TORSDOF 3
ENDMDL
MODEL 5
REMARK VINA RESULT:      -7.4      8.000      9.629
REMARK  Name = null
REMARK  3 active torsions:
REMARK  status: ('A' for Active; 'I' for Inactive)
REMARK    1  A    between atoms: O_2  and  C_3
REMARK    2  A    between atoms: C_6  and  C_9
REMARK    3  A    between atoms: C_18  and  O_20
REMARK                            x       y       z     vdW  Elec       q    Type
REMARK                         _______ _______ _______ _____ _____    ______ ____
ROOT
ATOM      1  C   UNL     1     104.518 124.439 146.626  0.00  0.00    +0.000 A 
ATOM      2  C   UNL     1     104.880 124.765 145.959  0.00  0.00    +0.000 A 
ATOM      3  C   UNL     1     105.659 125.033 146.003  0.00  0.00    +0.000 A 
ATOM      4  O   UNL     1     106.021 125.359 145.337  0.00  0.00    +0.000 OA
ATOM      5  C   UNL     1     106.077 124.976 146.712  0.00  0.00    +0.000 A 
ATOM      6  C   UNL     1     105.715 124.650 147.379  0.00  0.00    +0.000 A 
ATOM      7  O   UNL     1     104.936 124.382 147.335  0.00  0.00    +0.000 OA
ATOM      8  C   UNL     1     106.133 124.593 148.088  0.00  0.00    +0.000 A 
ATOM      9  C   UNL     1     106.911 124.861 148.131  0.00  0.00    +0.000 A 
ATOM     10  C   UNL     1     107.273 125.187 147.464  0.00  0.00    +0.000 A 
ATOM     11  C   UNL     1     106.856 125.245 146.755  0.00  0.00    +0.000 A 
ENDROOT
BRANCH   1  15
ATOM     12  C   UNL     1     102.182 123.635 146.497  0.00  0.00    +0.000 A 
ATOM     13  C   UNL     1     102.351 124.355 146.864  0.00  0.00    +0.000 A 
ATOM     14  C   UNL     1     103.130 124.622 146.907  0.00  0.00    +0.000 A 
ATOM     15  C   UNL     1     103.740 124.171 146.583  0.00  0.00    +0.000 A 
ATOM     16  C   UNL     1     103.571 123.452 146.217  0.00  0.00    +0.000 A 
ATOM     17  C   UNL     1     102.792 123.183 146.173  0.00  0.00    +0.000 A 
BRANCH  12  19
ATOM     18  C   UNL     1     101.027 123.308 145.721  0.00  0.00    +0.000 C 
ATOM     19  O   UNL     1     101.403 123.367 146.454  0.00  0.00    +0.000 OA
ENDBRANCH  12  19
ENDBRANCH   1  15
BRANCH  10  20
ATOM     20  O   UNL     1     108.052 125.456 147.507  0.00  0.00    +0.000 OA
ATOM     21  C   UNL     1     108.615 125.024 147.928  0.00  0.00    +0.000 C 
ENDBRANCH  10  20
TORSDOF 3
ENDMDL
MODEL 6
REMARK VINA RESULT:      -7.3      7.509     10.108
REMARK  Name = null
REMARK  3 active torsions:
REMARK  status: ('A' for Active; 'I' for Inactive)
REMARK    1  A    between atoms: O_2  and  C_3
REMARK    2  A    between atoms: C_6  and  C_9
REMARK    3  A    between atoms: C_18  and  O_20
REMARK                            x       y       z     vdW  Elec       q    Type
REMARK                         _______ _______ _______ _____ _____    ______ ____
ROOT
ATOM      1  C   UNL     1     112.497 125.879 137.290  0.00  0.00    +0.000 A 
ATOM      2  C   UNL     1     113.267 125.588 137.224  0.00  0.00    +0.000 A 
ATOM      3  C   UNL     1     113.809 125.715 137.834  0.00  0.00    +0.000 A 
ATOM      4  O   UNL     1     114.578 125.423 137.768  0.00  0.00    +0.000 OA
ATOM      5  C   UNL     1     113.582 126.132 138.508  0.00  0.00    +0.000 A 
ATOM      6  C   UNL     1     112.812 126.424 138.574  0.00  0.00    +0.000 A 
ATOM      7  O   UNL     1     112.271 126.297 137.964  0.00  0.00    +0.000 OA
ATOM      8  C   UNL     1     112.586 126.841 139.247  0.00  0.00    +0.000 A 
ATOM      9  C   UNL     1     113.127 126.968 139.856  0.00  0.00    +0.000 A 
ATOM     10  C   UNL     1     113.897 126.676 139.790  0.00  0.00    +0.000 A 
ATOM     11  C   UNL     1     114.124 126.259 139.117  0.00  0.00    +0.000 A 
ENDROOT
BRANCH   1  15
ATOM     12  C   UNL     1     110.872 125.500 135.463  0.00  0.00    +0.000 A 
ATOM     13  C   UNL     1     111.257 126.227 135.528  0.00  0.00    +0.000 A 
ATOM     14  C   UNL     1     111.799 126.353 136.137  0.00  0.00    +0.000 A 
ATOM     15  C   UNL     1     111.956 125.753 136.681  0.00  0.00    +0.000 A 
ATOM     16  C   UNL     1     111.571 125.026 136.615  0.00  0.00    +0.000 A 
ATOM     17  C   UNL     1     111.029 124.899 136.006  0.00  0.00    +0.000 A 
BRANCH  12  19
ATOM     18  C   UNL     1     109.660 125.853 134.792  0.00  0.00    +0.000 C 
ATOM     19  O   UNL     1     110.330 125.374 134.854  0.00  0.00    +0.000 OA
ENDBRANCH  12  19
ENDBRANCH   1  15
BRANCH  10  20
ATOM     20  O   UNL     1     114.439 126.803 140.400  0.00  0.00    +0.000 OA
ATOM     21  C   UNL     1     114.365 127.464 140.887  0.00  0.00    +0.000 C 
ENDBRANCH  10  20
TORSDOF 3
ENDMDL
MODEL 7
REMARK VINA RESULT:      -7.2      8.831     10.442
REMARK  Name = null
REMARK  3 active torsions:
REMARK  status: ('A' for Active; 'I' for Inactive)
REMARK    1  A    between atoms: O_2  and  C_3
REMARK    2  A    between atoms: C_6  and  C_9
REMARK    3  A    between atoms: C_18  and  O_20
REMARK                            x       y       z     vdW  Elec       q    Type
REMARK                         _______ _______ _______ _____ _____    ______ ____
ROOT
ATOM      1  C   UNL     1     113.531 126.829 136.526  0.00  0.00    +0.000 A 
ATOM      2  C   UNL     1     114.175 126.395 136.808  0.00  0.00    +0.000 A 
ATOM      3  C   UNL     1     114.101 125.583 136.937  0.00  0.00    +0.000 A 
ATOM      4  O   UNL     1     114.743 125.150 137.219  0.00  0.00    +0.000 OA
ATOM      5  C   UNL     1     113.384 125.204 136.783  0.00  0.00    +0.000 A 
ATOM      6  C   UNL     1     112.740 125.638 136.501  0.00  0.00    +0.000 A 
ATOM      7  O   UNL     1     112.815 126.449 136.373  0.00  0.00    +0.000 OA
ATOM      8  C   UNL     1     112.024 125.259 136.347  0.00  0.00    +0.000 A 
ATOM      9  C   UNL     1     111.950 124.448 136.476  0.00  0.00    +0.000 A 
ATOM     10  C   UNL     1     112.594 124.015 136.758  0.00  0.00    +0.000 A 
ATOM     11  C   UNL     1     113.310 124.393 136.912  0.00  0.00    +0.000 A 
ENDROOT
BRANCH   1  15
ATOM     12  C   UNL     1     113.753 129.263 136.141  0.00  0.00    +0.000 A 
ATOM     13  C   UNL     1     113.371 128.985 136.818  0.00  0.00    +0.000 A 
ATOM     14  C   UNL     1     113.297 128.173 136.946  0.00  0.00    +0.000 A 
ATOM     15  C   UNL     1     113.605 127.639 136.398  0.00  0.00    +0.000 A 
ATOM     16  C   UNL     1     113.987 127.917 135.722  0.00  0.00    +0.000 A 
ATOM     17  C   UNL     1     114.061 128.729 135.593  0.00  0.00    +0.000 A 
BRANCH  12  19
ATOM     18  C   UNL     1     114.530 130.460 136.210  0.00  0.00    +0.000 C 
ATOM     19  O   UNL     1     113.827 130.074 136.013  0.00  0.00    +0.000 OA
ENDBRANCH  12  19
ENDBRANCH   1  15
BRANCH  10  20
ATOM     20  O   UNL     1     112.519 123.203 136.887  0.00  0.00    +0.000 OA
ATOM     21  C   UNL     1     111.864 122.907 137.290  0.00  0.00    +0.000 C 
ENDBRANCH  10  20
TORSDOF 3
ENDMDL
MODEL 8
REMARK VINA RESULT:      -7.2      7.522      8.528
REMARK  Name = null
REMARK  3 active torsions:
REMARK  status: ('A' for Active; 'I' for Inactive)
REMARK    1  A    between atoms: O_2  and  C_3
REMARK    2  A    between atoms: C_6  and  C_9
REMARK    3  A    between atoms: C_18  and  O_20
REMARK                            x       y       z     vdW  Elec       q    Type
REMARK                         _______ _______ _______ _____ _____    ______ ____
ROOT
ATOM      1  C   UNL     1     110.069 127.472 135.369  0.00  0.00    +0.000 A 
ATOM      2  C   UNL     1     109.687 126.873 134.949  0.00  0.00    +0.000 A 
ATOM      3  C   UNL     1     109.934 126.090 135.033  0.00  0.00    +0.000 A 
ATOM      4  O   UNL     1     109.553 125.490 134.613  0.00  0.00    +0.000 OA
ATOM      5  C   UNL     1     110.562 125.905 135.535  0.00  0.00    +0.000 A 
ATOM      6  C   UNL     1     110.944 126.505 135.955  0.00  0.00    +0.000 A 
ATOM      7  O   UNL     1     110.697 127.288 135.872  0.00  0.00    +0.000 OA
ATOM      8  C   UNL     1     111.571 126.321 136.458  0.00  0.00    +0.000 A 
ATOM      9  C   UNL     1     111.818 125.539 136.541  0.00  0.00    +0.000 A 
ATOM     10  C   UNL     1     111.436 124.939 136.121  0.00  0.00    +0.000 A 
ATOM     11  C   UNL     1     110.808 125.123 135.618  0.00  0.00    +0.000 A 
ENDROOT
BRANCH   1  15
ATOM     12  C   UNL     1     109.330 129.821 135.119  0.00  0.00    +0.000 A 
ATOM     13  C   UNL     1     109.939 129.527 134.645  0.00  0.00    +0.000 A 
ATOM     14  C   UNL     1     110.185 128.744 134.729  0.00  0.00    +0.000 A 
ATOM     15  C   UNL     1     109.823 128.255 135.286  0.00  0.00    +0.000 A 
ATOM     16  C   UNL     1     109.215 128.548 135.759  0.00  0.00    +0.000 A 
ATOM     17  C   UNL     1     108.968 129.331 135.676  0.00  0.00    +0.000 A 
BRANCH  12  19
ATOM     18  C   UNL     1     109.391 131.187 135.532  0.00  0.00    +0.000 C 
ATOM     19  O   UNL     1     109.084 130.603 135.035  0.00  0.00    +0.000 OA
ENDBRANCH  12  19
ENDBRANCH   1  15
BRANCH  10  20
ATOM     20  O   UNL     1     111.683 124.156 136.204  0.00  0.00    +0.000 OA
ATOM     21  C   UNL     1     111.867 123.859 136.951  0.00  0.00    +0.000 C 
ENDBRANCH  10  20
TORSDOF 3
ENDMDL
MODEL 9
REMARK VINA RESULT:      -7.2      9.376     11.128
REMARK  Name = null
REMARK  3 active torsions:
REMARK  status: ('A' for Active; 'I' for Inactive)
REMARK    1  A    between atoms: O_2  and  C_3
REMARK    2  A    between atoms: C_6  and  C_9
REMARK    3  A    between atoms: C_18  and  O_20
REMARK                            x       y       z     vdW  Elec       q    Type
REMARK                         _______ _______ _______ _____ _____    ______ ____
ROOT
ATOM      1  C   UNL     1     113.453 127.189 136.567  0.00  0.00    +0.000 A 
ATOM      2  C   UNL     1     113.144 127.675 137.159  0.00  0.00    +0.000 A 
ATOM      3  C   UNL     1     113.265 128.490 137.127  0.00  0.00    +0.000 A 
ATOM      4  O   UNL     1     112.957 128.975 137.719  0.00  0.00    +0.000 OA
ATOM      5  C   UNL     1     113.695 128.821 136.505  0.00  0.00    +0.000 A 
ATOM      6  C   UNL     1     114.004 128.335 135.913  0.00  0.00    +0.000 A 
ATOM      7  O   UNL     1     113.883 127.520 135.944  0.00  0.00    +0.000 OA
ATOM      8  C   UNL     1     114.433 128.665 135.291  0.00  0.00    +0.000 A 
ATOM      9  C   UNL     1     114.554 129.480 135.261  0.00  0.00    +0.000 A 
ATOM     10  C   UNL     1     114.245 129.966 135.853  0.00  0.00    +0.000 A 
ATOM     11  C   UNL     1     113.816 129.636 136.474  0.00  0.00    +0.000 A 
ENDROOT
BRANCH   1  15
ATOM     12  C   UNL     1     113.091 124.743 136.659  0.00  0.00    +0.000 A 
ATOM     13  C   UNL     1     113.812 125.063 136.902  0.00  0.00    +0.000 A 
ATOM     14  C   UNL     1     113.932 125.878 136.871  0.00  0.00    +0.000 A 
ATOM     15  C   UNL     1     113.332 126.374 136.597  0.00  0.00    +0.000 A 
ATOM     16  C   UNL     1     112.612 126.054 136.355  0.00  0.00    +0.000 A 
ATOM     17  C   UNL     1     112.491 125.238 136.386  0.00  0.00    +0.000 A 
BRANCH  12  19
ATOM     18  C   UNL     1     112.235 123.627 136.917  0.00  0.00    +0.000 C 
ATOM     19  O   UNL     1     112.971 123.927 136.691  0.00  0.00    +0.000 OA
ENDBRANCH  12  19
ENDBRANCH   1  15
BRANCH  10  20
ATOM     20  O   UNL     1     114.366 130.782 135.821  0.00  0.00    +0.000 OA
ATOM     21  C   UNL     1     115.060 131.084 135.496  0.00  0.00    +0.000 C 
ENDBRANCH  10  20
TORSDOF 3
ENDMDL
MODEL 10
REMARK VINA RESULT:      -7.2      9.668     11.172
REMARK  Name = null
REMARK  3 active torsions:
REMARK  status: ('A' for Active; 'I' for Inactive)
REMARK    1  A    between atoms: O_2  and  C_3
REMARK    2  A    between atoms: C_6  and  C_9
REMARK    3  A    between atoms: C_18  and  O_20
REMARK                            x       y       z     vdW  Elec       q    Type
REMARK                         _______ _______ _______ _____ _____    ______ ____
ROOT
ATOM      1  C   UNL     1     113.602 128.186 136.039  0.00  0.00    +0.000 A 
ATOM      2  C   UNL     1     112.779 128.126 135.988  0.00  0.00    +0.000 A 
ATOM      3  C   UNL     1     112.407 127.410 136.160  0.00  0.00    +0.000 A 
ATOM      4  O   UNL     1     111.586 127.350 136.109  0.00  0.00    +0.000 OA
ATOM      5  C   UNL     1     112.855 126.753 136.382  0.00  0.00    +0.000 A 
ATOM      6  C   UNL     1     113.677 126.813 136.433  0.00  0.00    +0.000 A 
ATOM      7  O   UNL     1     114.050 127.529 136.261  0.00  0.00    +0.000 OA
ATOM      8  C   UNL     1     114.125 126.158 136.655  0.00  0.00    +0.000 A 
ATOM      9  C   UNL     1     113.753 125.443 136.826  0.00  0.00    +0.000 A 
ATOM     10  C   UNL     1     112.930 125.383 136.776  0.00  0.00    +0.000 A 
ATOM     11  C   UNL     1     112.483 126.038 136.554  0.00  0.00    +0.000 A 
ENDROOT
BRANCH   1  15
ATOM     12  C   UNL     1     114.720 130.333 135.525  0.00  0.00    +0.000 A 
ATOM     13  C   UNL     1     114.367 130.217 136.263  0.00  0.00    +0.000 A 
ATOM     14  C   UNL     1     113.994 129.501 136.434  0.00  0.00    +0.000 A 
ATOM     15  C   UNL     1     113.974 128.901 135.868  0.00  0.00    +0.000 A 
ATOM     16  C   UNL     1     114.326 129.017 135.132  0.00  0.00    +0.000 A 
ATOM     17  C   UNL     1     114.699 129.732 134.960  0.00  0.00    +0.000 A 
BRANCH  12  19
ATOM     18  C   UNL     1     115.686 131.078 134.782  0.00  0.00    +0.000 C 
ATOM     19  O   UNL     1     115.092 131.049 135.355  0.00  0.00    +0.000 OA
ENDBRANCH  12  19
ENDBRANCH   1  15
BRANCH  10  20
ATOM     20  O   UNL     1     112.558 124.667 136.947  0.00  0.00    +0.000 OA
ATOM     21  C   UNL     1     112.943 123.954 136.794  0.00  0.00    +0.000 C 
ENDBRANCH  10  20
TORSDOF 3
ENDMDL
