MODEL 1
REMARK VINA RESULT:     -10.3      0.000      0.000
REMARK  Name = 44259072
REMARK  13 active torsions:
REMARK  status: ('A' for Active; 'I' for Inactive)
REMARK    1  A    between atoms: O_1  and  C_18
REMARK    2  A    between atoms: O_1  and  C_21
REMARK    3  A    between atoms: O_4  and  C_19
REMARK    4  A    between atoms: O_4  and  C_31
REMARK    5  A    between atoms: O_6  and  C_26
REMARK    6  A    between atoms: O_6  and  C_30
REMARK    7  A    between atoms: O_10  and  C_29
REMARK    8  A    between atoms: O_10  and  C_36
REMARK    9  A    between atoms: O_17  and  C_50
REMARK   10  A    between atoms: C_27  and  C_29
REMARK   11  A    between atoms: C_32  and  C_38
REMARK   12  A    between atoms: C_39  and  C_46
REMARK   13  A    between atoms: C_46  and  C_49
REMARK                            x       y       z     vdW  Elec       q    Type
REMARK                         _______ _______ _______ _____ _____    ______ ____
ROOT
ATOM      1  O   UNL     1     111.029 128.579 135.971  0.00  0.00    +0.000 OA
ENDROOT
BRANCH   1   6
ATOM      2  O   UNL     1     112.467 126.947 136.158  0.00  0.00    +0.000 OA
ATOM      3  O   UNL     1     110.047 127.356 136.485  0.00  0.00    +0.000 OA
ATOM      4  O   UNL     1     109.842 125.990 136.897  0.00  0.00    +0.000 OA
ATOM      5  O   UNL     1     112.128 124.174 136.980  0.00  0.00    +0.000 OA
ATOM      6  C   UNL     1     111.345 127.831 136.119  0.00  0.00    +0.000 A 
ATOM      7  C   UNL     1     112.151 127.695 136.010  0.00  0.00    +0.000 A 
ATOM      8  C   UNL     1     110.854 127.220 136.376  0.00  0.00    +0.000 A 
ATOM      9  C   UNL     1     111.169 126.473 136.524  0.00  0.00    +0.000 A 
ATOM     10  C   UNL     1     111.975 126.335 136.415  0.00  0.00    +0.000 A 
ATOM     11  C   UNL     1     112.316 125.561 136.566  0.00  0.00    +0.000 A 
ATOM     12  C   UNL     1     110.647 125.844 136.791  0.00  0.00    +0.000 A 
ATOM     13  C   UNL     1     111.810 124.921 136.833  0.00  0.00    +0.000 A 
ATOM     14  C   UNL     1     110.970 125.062 136.947  0.00  0.00    +0.000 A 
BRANCH   7  15
ATOM     15  C   UNL     1     112.642 128.306 135.754  0.00  0.00    +0.000 A 
ATOM     16  C   UNL     1     112.595 128.573 134.975  0.00  0.00    +0.000 A 
ATOM     17  C   UNL     1     113.180 128.650 136.276  0.00  0.00    +0.000 A 
ATOM     18  C   UNL     1     113.086 129.185 134.717  0.00  0.00    +0.000 A 
ATOM     19  C   UNL     1     113.671 129.261 136.019  0.00  0.00    +0.000 A 
ATOM     20  C   UNL     1     113.624 129.528 135.240  0.00  0.00    +0.000 A 
BRANCH  20  21
ATOM     21  O   UNL     1     114.115 130.140 134.983  0.00  0.00    +0.000 OA
ATOM     22  C   UNL     1     114.889 129.976 134.749  0.00  0.00    +0.000 C 
ENDBRANCH  20  21
ENDBRANCH   7  15
BRANCH  11  23
ATOM     23  C   UNL     1     113.124 125.434 136.454  0.00  0.00    +0.000 C 
BRANCH  23  24
ATOM     24  C   UNL     1     113.598 125.217 137.093  0.00  0.00    +0.000 C 
ATOM     25  C   UNL     1     114.411 125.120 136.988  0.00  0.00    +0.000 C 
ATOM     26  C   UNL     1     114.886 124.902 137.626  0.00  0.00    +0.000 C 
ATOM     27  C   UNL     1     114.748 125.240 136.244  0.00  0.00    +0.000 C 
ENDBRANCH  23  24
ENDBRANCH  11  23
ENDBRANCH   1   6
BRANCH   1  34
ATOM     28  O   UNL     1     110.945 129.049 137.318  0.00  0.00    +0.000 OA
ATOM     29  O   UNL     1     109.549 129.233 135.650  0.00  0.00    +0.000 OA
ATOM     30  C   UNL     1     109.464 129.703 136.996  0.00  0.00    +0.000 C 
ATOM     31  C   UNL     1     109.792 129.775 137.750  0.00  0.00    +0.000 C 
ATOM     32  C   UNL     1     109.876 129.305 136.403  0.00  0.00    +0.000 C 
ATOM     33  C   UNL     1     110.532 129.448 137.910  0.00  0.00    +0.000 C 
ATOM     34  C   UNL     1     110.616 128.978 136.564  0.00  0.00    +0.000 C 
ATOM     35  C   UNL     1     110.860 129.520 138.665  0.00  0.00    +0.000 C 
BRANCH  30  36
ATOM     36  O   UNL     1     108.724 130.030 136.836  0.00  0.00    +0.000 OA
BRANCH  36  41
ATOM     37  O   UNL     1     109.276 131.274 136.398  0.00  0.00    +0.000 OA
ATOM     38  O   UNL     1     107.389 130.295 135.903  0.00  0.00    +0.000 OA
ATOM     39  O   UNL     1     107.273 131.670 134.999  0.00  0.00    +0.000 OA
ATOM     40  O   UNL     1     108.492 132.782 135.028  0.00  0.00    +0.000 OA
ATOM     41  C   UNL     1     108.665 130.718 136.384  0.00  0.00    +0.000 C 
ATOM     42  C   UNL     1     107.998 130.850 135.917  0.00  0.00    +0.000 C 
ATOM     43  C   UNL     1     107.941 131.538 135.466  0.00  0.00    +0.000 C 
ATOM     44  C   UNL     1     108.550 132.093 135.480  0.00  0.00    +0.000 C 
ATOM     45  C   UNL     1     109.217 131.961 135.946  0.00  0.00    +0.000 C 
BRANCH  45  46
ATOM     46  C   UNL     1     109.828 132.517 135.961  0.00  0.00    +0.000 C 
BRANCH  46  47
ATOM     47  O   UNL     1     110.121 132.788 136.682  0.00  0.00    +0.000 OA
BRANCH  47  49
ATOM     48  O   UNL     1     110.772 134.060 136.644  0.00  0.00    +0.000 OA
ATOM     49  C   UNL     1     110.812 133.238 136.703  0.00  0.00    +0.000 C 
ATOM     50  C   UNL     1     111.544 132.865 136.782  0.00  0.00    +0.000 C 
ENDBRANCH  47  49
ENDBRANCH  46  47
ENDBRANCH  45  46
ENDBRANCH  36  41
ENDBRANCH  30  36
BRANCH  31  51
ATOM     51  O   UNL     1     109.379 130.174 138.343  0.00  0.00    +0.000 OA
BRANCH  51  53
ATOM     52  O   UNL     1     108.880 129.027 139.033  0.00  0.00    +0.000 OA
ATOM     53  C   UNL     1     109.197 129.789 139.049  0.00  0.00    +0.000 C 
ATOM     54  C   UNL     1     109.331 130.165 139.771  0.00  0.00    +0.000 C 
ENDBRANCH  51  53
ENDBRANCH  31  51
ENDBRANCH   1  34
TORSDOF 13
ENDMDL
MODEL 2
REMARK VINA RESULT:     -10.3      2.747      4.394
REMARK  Name = 44259072
REMARK  13 active torsions:
REMARK  status: ('A' for Active; 'I' for Inactive)
REMARK    1  A    between atoms: O_1  and  C_18
REMARK    2  A    between atoms: O_1  and  C_21
REMARK    3  A    between atoms: O_4  and  C_19
REMARK    4  A    between atoms: O_4  and  C_31
REMARK    5  A    between atoms: O_6  and  C_26
REMARK    6  A    between atoms: O_6  and  C_30
REMARK    7  A    between atoms: O_10  and  C_29
REMARK    8  A    between atoms: O_10  and  C_36
REMARK    9  A    between atoms: O_17  and  C_50
REMARK   10  A    between atoms: C_27  and  C_29
REMARK   11  A    between atoms: C_32  and  C_38
REMARK   12  A    between atoms: C_39  and  C_46
REMARK   13  A    between atoms: C_46  and  C_49
REMARK                            x       y       z     vdW  Elec       q    Type
REMARK                         _______ _______ _______ _____ _____    ______ ____
ROOT
ATOM      1  O   UNL     1     111.231 127.965 139.288  0.00  0.00    +0.000 OA
ENDROOT
BRANCH   1   6
ATOM      2  O   UNL     1     111.741 126.378 137.879  0.00  0.00    +0.000 OA
ATOM      3  O   UNL     1     109.911 127.992 138.298  0.00  0.00    +0.000 OA
ATOM      4  O   UNL     1     109.173 127.496 137.163  0.00  0.00    +0.000 OA
ATOM      5  O   UNL     1     110.308 125.324 135.573  0.00  0.00    +0.000 OA
ATOM      6  C   UNL     1     111.181 127.441 138.653  0.00  0.00    +0.000 A 
ATOM      7  C   UNL     1     111.791 126.903 138.514  0.00  0.00    +0.000 A 
ATOM      8  C   UNL     1     110.522 127.455 138.159  0.00  0.00    +0.000 A 
ATOM      9  C   UNL     1     110.471 126.930 137.524  0.00  0.00    +0.000 A 
ATOM     10  C   UNL     1     111.080 126.392 137.384  0.00  0.00    +0.000 A 
ATOM     11  C   UNL     1     111.040 125.840 136.726  0.00  0.00    +0.000 A 
ATOM     12  C   UNL     1     109.779 126.954 137.016  0.00  0.00    +0.000 A 
ATOM     13  C   UNL     1     110.356 125.850 136.207  0.00  0.00    +0.000 A 
ATOM     14  C   UNL     1     109.720 126.410 136.352  0.00  0.00    +0.000 A 
BRANCH   7  15
ATOM     15  C   UNL     1     112.451 126.889 139.008  0.00  0.00    +0.000 A 
ATOM     16  C   UNL     1     113.176 127.174 138.736  0.00  0.00    +0.000 A 
ATOM     17  C   UNL     1     112.386 126.591 139.775  0.00  0.00    +0.000 A 
ATOM     18  C   UNL     1     113.836 127.160 139.231  0.00  0.00    +0.000 A 
ATOM     19  C   UNL     1     113.046 126.578 140.270  0.00  0.00    +0.000 A 
ATOM     20  C   UNL     1     113.771 126.862 139.998  0.00  0.00    +0.000 A 
BRANCH  20  21
ATOM     21  O   UNL     1     114.431 126.849 140.493  0.00  0.00    +0.000 OA
ATOM     22  C   UNL     1     114.347 127.015 141.296  0.00  0.00    +0.000 C 
ENDBRANCH  20  21
ENDBRANCH   7  15
BRANCH  11  23
ATOM     23  C   UNL     1     111.655 125.306 136.594  0.00  0.00    +0.000 C 
BRANCH  23  24
ATOM     24  C   UNL     1     111.559 124.511 136.794  0.00  0.00    +0.000 C 
ATOM     25  C   UNL     1     112.191 123.987 136.712  0.00  0.00    +0.000 C 
ATOM     26  C   UNL     1     112.097 123.193 136.912  0.00  0.00    +0.000 C 
ATOM     27  C   UNL     1     112.918 124.258 136.429  0.00  0.00    +0.000 C 
ENDBRANCH  23  24
ENDBRANCH  11  23
ENDBRANCH   1   6
BRANCH   1  34
ATOM     28  O   UNL     1     111.556 129.078 138.452  0.00  0.00    +0.000 OA
ATOM     29  O   UNL     1     110.602 128.995 140.413  0.00  0.00    +0.000 OA
ATOM     30  C   UNL     1     110.927 130.107 139.578  0.00  0.00    +0.000 C 
ATOM     31  C   UNL     1     111.247 130.406 138.879  0.00  0.00    +0.000 C 
ATOM     32  C   UNL     1     110.922 129.294 139.715  0.00  0.00    +0.000 C 
ATOM     33  C   UNL     1     111.561 129.892 138.316  0.00  0.00    +0.000 C 
ATOM     34  C   UNL     1     111.236 128.779 139.152  0.00  0.00    +0.000 C 
ATOM     35  C   UNL     1     111.882 130.191 137.617  0.00  0.00    +0.000 C 
BRANCH  30  36
ATOM     36  O   UNL     1     110.612 130.622 140.141  0.00  0.00    +0.000 OA
BRANCH  36  41
ATOM     37  O   UNL     1     111.846 130.680 140.859  0.00  0.00    +0.000 OA
ATOM     38  O   UNL     1     109.803 131.119 141.490  0.00  0.00    +0.000 OA
ATOM     39  O   UNL     1     110.633 131.425 142.883  0.00  0.00    +0.000 OA
ATOM     40  O   UNL     1     112.271 131.235 142.927  0.00  0.00    +0.000 OA
ATOM     41  C   UNL     1     111.026 130.775 140.837  0.00  0.00    +0.000 C 
ATOM     42  C   UNL     1     110.622 131.024 141.512  0.00  0.00    +0.000 C 
ATOM     43  C   UNL     1     111.037 131.177 142.208  0.00  0.00    +0.000 C 
ATOM     44  C   UNL     1     111.856 131.082 142.230  0.00  0.00    +0.000 C 
ATOM     45  C   UNL     1     112.260 130.834 141.556  0.00  0.00    +0.000 C 
BRANCH  45  46
ATOM     46  C   UNL     1     113.080 130.738 141.577  0.00  0.00    +0.000 C 
BRANCH  46  47
ATOM     47  O   UNL     1     113.551 131.092 141.000  0.00  0.00    +0.000 OA
BRANCH  47  49
ATOM     48  O   UNL     1     114.836 131.464 141.504  0.00  0.00    +0.000 OA
ATOM     49  C   UNL     1     114.369 130.989 141.016  0.00  0.00    +0.000 C 
ATOM     50  C   UNL     1     114.721 130.410 140.544  0.00  0.00    +0.000 C 
ENDBRANCH  47  49
ENDBRANCH  46  47
ENDBRANCH  45  46
ENDBRANCH  36  41
ENDBRANCH  30  36
BRANCH  31  51
ATOM     51  O   UNL     1     111.252 131.220 138.742  0.00  0.00    +0.000 OA
BRANCH  51  53
ATOM     52  O   UNL     1     109.994 131.366 138.083  0.00  0.00    +0.000 OA
ATOM     53  C   UNL     1     110.799 131.539 138.132  0.00  0.00    +0.000 C 
ATOM     54  C   UNL     1     111.149 132.032 137.570  0.00  0.00    +0.000 C 
ENDBRANCH  51  53
ENDBRANCH  31  51
ENDBRANCH   1  34
TORSDOF 13
ENDMDL
MODEL 3
REMARK VINA RESULT:     -10.1      3.469      4.365
REMARK  Name = 44259072
REMARK  13 active torsions:
REMARK  status: ('A' for Active; 'I' for Inactive)
REMARK    1  A    between atoms: O_1  and  C_18
REMARK    2  A    between atoms: O_1  and  C_21
REMARK    3  A    between atoms: O_4  and  C_19
REMARK    4  A    between atoms: O_4  and  C_31
REMARK    5  A    between atoms: O_6  and  C_26
REMARK    6  A    between atoms: O_6  and  C_30
REMARK    7  A    between atoms: O_10  and  C_29
REMARK    8  A    between atoms: O_10  and  C_36
REMARK    9  A    between atoms: O_17  and  C_50
REMARK   10  A    between atoms: C_27  and  C_29
REMARK   11  A    between atoms: C_32  and  C_38
REMARK   12  A    between atoms: C_39  and  C_46
REMARK   13  A    between atoms: C_46  and  C_49
REMARK                            x       y       z     vdW  Elec       q    Type
REMARK                         _______ _______ _______ _____ _____    ______ ____
ROOT
ATOM      1  O   UNL     1     111.165 127.758 139.169  0.00  0.00    +0.000 OA
ENDROOT
BRANCH   1   6
ATOM      2  O   UNL     1     112.555 126.322 138.291  0.00  0.00    +0.000 OA
ATOM      3  O   UNL     1     110.167 126.953 138.131  0.00  0.00    +0.000 OA
ATOM      4  O   UNL     1     109.934 125.936 137.135  0.00  0.00    +0.000 OA
ATOM      5  O   UNL     1     112.161 124.247 136.285  0.00  0.00    +0.000 OA
ATOM      6  C   UNL     1     111.462 127.145 138.703  0.00  0.00    +0.000 A 
ATOM      7  C   UNL     1     112.258 126.934 138.757  0.00  0.00    +0.000 A 
ATOM      8  C   UNL     1     110.963 126.743 138.185  0.00  0.00    +0.000 A 
ATOM      9  C   UNL     1     111.260 126.130 137.719  0.00  0.00    +0.000 A 
ATOM     10  C   UNL     1     112.055 125.919 137.772  0.00  0.00    +0.000 A 
ATOM     11  C   UNL     1     112.377 125.282 137.292  0.00  0.00    +0.000 A 
ATOM     12  C   UNL     1     110.729 125.718 137.182  0.00  0.00    +0.000 A 
ATOM     13  C   UNL     1     111.861 124.860 136.750  0.00  0.00    +0.000 A 
ATOM     14  C   UNL     1     111.032 125.078 136.694  0.00  0.00    +0.000 A 
BRANCH   7  15
ATOM     15  C   UNL     1     112.757 127.336 139.276  0.00  0.00    +0.000 A 
ATOM     16  C   UNL     1     113.024 126.965 139.962  0.00  0.00    +0.000 A 
ATOM     17  C   UNL     1     112.990 128.110 139.109  0.00  0.00    +0.000 A 
ATOM     18  C   UNL     1     113.524 127.367 140.482  0.00  0.00    +0.000 A 
ATOM     19  C   UNL     1     113.490 128.512 139.627  0.00  0.00    +0.000 A 
ATOM     20  C   UNL     1     113.756 128.141 140.314  0.00  0.00    +0.000 A 
BRANCH  20  21
ATOM     21  O   UNL     1     114.256 128.543 140.834  0.00  0.00    +0.000 OA
ATOM     22  C   UNL     1     114.552 129.285 140.628  0.00  0.00    +0.000 C 
ENDBRANCH  20  21
ENDBRANCH   7  15
BRANCH  11  23
ATOM     23  C   UNL     1     113.174 125.079 137.352  0.00  0.00    +0.000 C 
BRANCH  23  24
ATOM     24  C   UNL     1     113.693 125.262 136.738  0.00  0.00    +0.000 C 
ATOM     25  C   UNL     1     114.495 125.085 136.810  0.00  0.00    +0.000 C 
ATOM     26  C   UNL     1     115.015 125.268 136.197  0.00  0.00    +0.000 C 
ATOM     27  C   UNL     1     114.778 124.725 137.497  0.00  0.00    +0.000 C 
ENDBRANCH  23  24
ENDBRANCH  11  23
ENDBRANCH   1   6
BRANCH   1  34
ATOM     28  O   UNL     1     110.508 126.899 140.104  0.00  0.00    +0.000 OA
ATOM     29  O   UNL     1     109.997 128.900 139.397  0.00  0.00    +0.000 OA
ATOM     30  C   UNL     1     109.340 128.042 140.332  0.00  0.00    +0.000 C 
ATOM     31  C   UNL     1     109.304 127.328 140.742  0.00  0.00    +0.000 C 
ATOM     32  C   UNL     1     109.961 128.186 139.807  0.00  0.00    +0.000 C 
ATOM     33  C   UNL     1     109.888 126.757 140.628  0.00  0.00    +0.000 C 
ATOM     34  C   UNL     1     110.545 127.615 139.693  0.00  0.00    +0.000 C 
ATOM     35  C   UNL     1     109.852 126.041 141.039  0.00  0.00    +0.000 C 
BRANCH  30  36
ATOM     36  O   UNL     1     108.756 128.613 140.446  0.00  0.00    +0.000 OA
BRANCH  36  41
ATOM     37  O   UNL     1     109.498 129.210 141.511  0.00  0.00    +0.000 OA
ATOM     38  O   UNL     1     107.833 129.976 140.325  0.00  0.00    +0.000 OA
ATOM     39  O   UNL     1     108.114 131.254 141.330  0.00  0.00    +0.000 OA
ATOM     40  O   UNL     1     109.318 131.170 142.456  0.00  0.00    +0.000 OA
ATOM     41  C   UNL     1     108.896 129.253 140.948  0.00  0.00    +0.000 C 
ATOM     42  C   UNL     1     108.435 129.934 140.888  0.00  0.00    +0.000 C 
ATOM     43  C   UNL     1     108.576 130.573 141.390  0.00  0.00    +0.000 C 
ATOM     44  C   UNL     1     109.177 130.531 141.953  0.00  0.00    +0.000 C 
ATOM     45  C   UNL     1     109.638 129.850 142.013  0.00  0.00    +0.000 C 
BRANCH  45  46
ATOM     46  C   UNL     1     110.241 129.807 142.576  0.00  0.00    +0.000 C 
BRANCH  46  47
ATOM     47  O   UNL     1     111.003 129.591 142.348  0.00  0.00    +0.000 OA
BRANCH  47  49
ATOM     48  O   UNL     1     112.126 130.100 143.070  0.00  0.00    +0.000 OA
ATOM     49  C   UNL     1     111.591 129.491 142.918  0.00  0.00    +0.000 C 
ATOM     50  C   UNL     1     111.642 128.781 143.337  0.00  0.00    +0.000 C 
ENDBRANCH  47  49
ENDBRANCH  46  47
ENDBRANCH  45  46
ENDBRANCH  36  41
ENDBRANCH  30  36
BRANCH  31  51
ATOM     51  O   UNL     1     108.683 127.184 141.267  0.00  0.00    +0.000 OA
BRANCH  51  53
ATOM     52  O   UNL     1     107.859 126.469 140.345  0.00  0.00    +0.000 OA
ATOM     53  C   UNL     1     108.143 126.581 141.112  0.00  0.00    +0.000 C 
ATOM     54  C   UNL     1     107.886 126.089 141.723  0.00  0.00    +0.000 C 
ENDBRANCH  51  53
ENDBRANCH  31  51
ENDBRANCH   1  34
TORSDOF 13
ENDMDL
MODEL 4
REMARK VINA RESULT:      -9.9      1.505      5.707
REMARK  Name = 44259072
REMARK  13 active torsions:
REMARK  status: ('A' for Active; 'I' for Inactive)
REMARK    1  A    between atoms: O_1  and  C_18
REMARK    2  A    between atoms: O_1  and  C_21
REMARK    3  A    between atoms: O_4  and  C_19
REMARK    4  A    between atoms: O_4  and  C_31
REMARK    5  A    between atoms: O_6  and  C_26
REMARK    6  A    between atoms: O_6  and  C_30
REMARK    7  A    between atoms: O_10  and  C_29
REMARK    8  A    between atoms: O_10  and  C_36
REMARK    9  A    between atoms: O_17  and  C_50
REMARK   10  A    between atoms: C_27  and  C_29
REMARK   11  A    between atoms: C_32  and  C_38
REMARK   12  A    between atoms: C_39  and  C_46
REMARK   13  A    between atoms: C_46  and  C_49
REMARK                            x       y       z     vdW  Elec       q    Type
REMARK                         _______ _______ _______ _____ _____    ______ ____
ROOT
ATOM      1  O   UNL     1     110.966 128.427 136.215  0.00  0.00    +0.000 OA
ENDROOT
BRANCH   1   6
ATOM      2  O   UNL     1     110.595 130.578 136.234  0.00  0.00    +0.000 OA
ATOM      3  O   UNL     1     109.330 128.463 136.001  0.00  0.00    +0.000 OA
ATOM      4  O   UNL     1     108.090 129.185 135.861  0.00  0.00    +0.000 OA
ATOM      5  O   UNL     1     108.130 132.104 135.959  0.00  0.00    +0.000 OA
ATOM      6  C   UNL     1     110.569 129.150 136.186  0.00  0.00    +0.000 A 
ATOM      7  C   UNL     1     110.991 129.855 136.263  0.00  0.00    +0.000 A 
ATOM      8  C   UNL     1     109.752 129.168 136.079  0.00  0.00    +0.000 A 
ATOM      9  C   UNL     1     109.356 129.891 136.050  0.00  0.00    +0.000 A 
ATOM     10  C   UNL     1     109.776 130.596 136.127  0.00  0.00    +0.000 A 
ATOM     11  C   UNL     1     109.376 131.355 136.099  0.00  0.00    +0.000 A 
ATOM     12  C   UNL     1     108.504 129.896 135.938  0.00  0.00    +0.000 A 
ATOM     13  C   UNL     1     108.524 131.380 135.988  0.00  0.00    +0.000 A 
ATOM     14  C   UNL     1     108.084 130.646 135.907  0.00  0.00    +0.000 A 
BRANCH   7  15
ATOM     15  C   UNL     1     111.809 129.837 136.370  0.00  0.00    +0.000 A 
ATOM     16  C   UNL     1     112.130 129.977 137.117  0.00  0.00    +0.000 A 
ATOM     17  C   UNL     1     112.306 129.681 135.730  0.00  0.00    +0.000 A 
ATOM     18  C   UNL     1     112.949 129.959 137.224  0.00  0.00    +0.000 A 
ATOM     19  C   UNL     1     113.123 129.663 135.837  0.00  0.00    +0.000 A 
ATOM     20  C   UNL     1     113.444 129.802 136.584  0.00  0.00    +0.000 A 
BRANCH  20  21
ATOM     21  O   UNL     1     114.263 129.785 136.692  0.00  0.00    +0.000 OA
ATOM     22  C   UNL     1     114.732 130.386 136.378  0.00  0.00    +0.000 C 
ENDBRANCH  20  21
ENDBRANCH   7  15
BRANCH  11  23
ATOM     23  C   UNL     1     109.805 132.055 136.177  0.00  0.00    +0.000 C 
BRANCH  23  24
ATOM     24  C   UNL     1     109.793 132.468 136.891  0.00  0.00    +0.000 C 
ATOM     25  C   UNL     1     110.251 133.148 136.982  0.00  0.00    +0.000 C 
ATOM     26  C   UNL     1     110.240 133.561 137.696  0.00  0.00    +0.000 C 
ATOM     27  C   UNL     1     110.721 133.415 136.358  0.00  0.00    +0.000 C 
ENDBRANCH  23  24
ENDBRANCH  11  23
ENDBRANCH   1   6
BRANCH   1  34
ATOM     28  O   UNL     1     110.480 128.137 137.527  0.00  0.00    +0.000 OA
ATOM     29  O   UNL     1     111.203 126.817 135.946  0.00  0.00    +0.000 OA
ATOM     30  C   UNL     1     110.716 126.526 137.258  0.00  0.00    +0.000 C 
ATOM     31  C   UNL     1     110.414 126.783 137.981  0.00  0.00    +0.000 C 
ATOM     32  C   UNL     1     110.901 127.074 136.669  0.00  0.00    +0.000 C 
ATOM     33  C   UNL     1     110.296 127.589 138.115  0.00  0.00    +0.000 C 
ATOM     34  C   UNL     1     110.782 127.879 136.803  0.00  0.00    +0.000 C 
ATOM     35  C   UNL     1     109.993 127.846 138.839  0.00  0.00    +0.000 C 
BRANCH  30  36
ATOM     36  O   UNL     1     110.835 125.721 137.124  0.00  0.00    +0.000 OA
BRANCH  36  41
ATOM     37  O   UNL     1     112.171 125.776 137.627  0.00  0.00    +0.000 OA
ATOM     38  O   UNL     1     111.200 124.336 136.305  0.00  0.00    +0.000 OA
ATOM     39  O   UNL     1     112.719 123.698 136.400  0.00  0.00    +0.000 OA
ATOM     40  O   UNL     1     113.873 124.446 137.313  0.00  0.00    +0.000 OA
ATOM     41  C   UNL     1     111.594 125.402 137.171  0.00  0.00    +0.000 C 
ATOM     42  C   UNL     1     111.777 124.709 136.761  0.00  0.00    +0.000 C 
ATOM     43  C   UNL     1     112.537 124.391 136.809  0.00  0.00    +0.000 C 
ATOM     44  C   UNL     1     113.113 124.764 137.265  0.00  0.00    +0.000 C 
ATOM     45  C   UNL     1     112.930 125.457 137.674  0.00  0.00    +0.000 C 
BRANCH  45  46
ATOM     46  C   UNL     1     113.507 125.831 138.131  0.00  0.00    +0.000 C 
BRANCH  46  47
ATOM     47  O   UNL     1     113.341 126.044 138.910  0.00  0.00    +0.000 OA
BRANCH  47  49
ATOM     48  O   UNL     1     114.664 126.324 139.374  0.00  0.00    +0.000 OA
ATOM     49  C   UNL     1     113.866 126.527 139.325  0.00  0.00    +0.000 C 
ATOM     50  C   UNL     1     113.591 127.214 139.692  0.00  0.00    +0.000 C 
ENDBRANCH  47  49
ENDBRANCH  46  47
ENDBRANCH  45  46
ENDBRANCH  36  41
ENDBRANCH  30  36
BRANCH  31  51
ATOM     51  O   UNL     1     110.230 126.236 138.570  0.00  0.00    +0.000 OA
BRANCH  51  53
ATOM     52  O   UNL     1     108.822 126.185 138.335  0.00  0.00    +0.000 OA
ATOM     53  C   UNL     1     109.460 126.183 138.859  0.00  0.00    +0.000 C 
ATOM     54  C   UNL     1     109.326 126.128 139.671  0.00  0.00    +0.000 C 
ENDBRANCH  51  53
ENDBRANCH  31  51
ENDBRANCH   1  34
TORSDOF 13
ENDMDL
MODEL 5
REMARK VINA RESULT:      -9.9      1.959      3.242
REMARK  Name = 44259072
REMARK  13 active torsions:
REMARK  status: ('A' for Active; 'I' for Inactive)
REMARK    1  A    between atoms: O_1  and  C_18
REMARK    2  A    between atoms: O_1  and  C_21
REMARK    3  A    between atoms: O_4  and  C_19
REMARK    4  A    between atoms: O_4  and  C_31
REMARK    5  A    between atoms: O_6  and  C_26
REMARK    6  A    between atoms: O_6  and  C_30
REMARK    7  A    between atoms: O_10  and  C_29
REMARK    8  A    between atoms: O_10  and  C_36
REMARK    9  A    between atoms: O_17  and  C_50
REMARK   10  A    between atoms: C_27  and  C_29
REMARK   11  A    between atoms: C_32  and  C_38
REMARK   12  A    between atoms: C_39  and  C_46
REMARK   13  A    between atoms: C_46  and  C_49
REMARK                            x       y       z     vdW  Elec       q    Type
REMARK                         _______ _______ _______ _____ _____    ______ ____
ROOT
ATOM      1  O   UNL     1     111.574 128.080 138.333  0.00  0.00    +0.000 OA
ENDROOT
BRANCH   1   6
ATOM      2  O   UNL     1     112.033 126.113 137.508  0.00  0.00    +0.000 OA
ATOM      3  O   UNL     1     110.524 128.023 137.061  0.00  0.00    +0.000 OA
ATOM      4  O   UNL     1     109.955 127.345 135.923  0.00  0.00    +0.000 OA
ATOM      5  O   UNL     1     110.931 124.683 135.223  0.00  0.00    +0.000 OA
ATOM      6  C   UNL     1     111.552 127.415 137.846  0.00  0.00    +0.000 A 
ATOM      7  C   UNL     1     112.055 126.778 137.995  0.00  0.00    +0.000 A 
ATOM      8  C   UNL     1     111.027 127.386 137.211  0.00  0.00    +0.000 A 
ATOM      9  C   UNL     1     111.005 126.721 136.724  0.00  0.00    +0.000 A 
ATOM     10  C   UNL     1     111.508 126.084 136.872  0.00  0.00    +0.000 A 
ATOM     11  C   UNL     1     111.495 125.385 136.372  0.00  0.00    +0.000 A 
ATOM     12  C   UNL     1     110.454 126.704 136.064  0.00  0.00    +0.000 A 
ATOM     13  C   UNL     1     110.951 125.350 135.709  0.00  0.00    +0.000 A 
ATOM     14  C   UNL     1     110.426 126.013 135.553  0.00  0.00    +0.000 A 
BRANCH   7  15
ATOM     15  C   UNL     1     112.579 126.806 138.631  0.00  0.00    +0.000 A 
ATOM     16  C   UNL     1     113.387 126.906 138.495  0.00  0.00    +0.000 A 
ATOM     17  C   UNL     1     112.297 126.735 139.403  0.00  0.00    +0.000 A 
ATOM     18  C   UNL     1     113.912 126.934 139.131  0.00  0.00    +0.000 A 
ATOM     19  C   UNL     1     112.822 126.764 140.039  0.00  0.00    +0.000 A 
ATOM     20  C   UNL     1     113.629 126.863 139.903  0.00  0.00    +0.000 A 
BRANCH  20  21
ATOM     21  O   UNL     1     114.155 126.892 140.539  0.00  0.00    +0.000 OA
ATOM     22  C   UNL     1     114.243 127.590 140.969  0.00  0.00    +0.000 C 
ENDBRANCH  20  21
ENDBRANCH   7  15
BRANCH  11  23
ATOM     23  C   UNL     1     112.001 124.753 136.529  0.00  0.00    +0.000 C 
BRANCH  23  24
ATOM     24  C   UNL     1     111.701 124.053 136.846  0.00  0.00    +0.000 C 
ATOM     25  C   UNL     1     112.213 123.440 137.049  0.00  0.00    +0.000 C 
ATOM     26  C   UNL     1     111.914 122.740 137.367  0.00  0.00    +0.000 C 
ATOM     27  C   UNL     1     113.026 123.526 136.935  0.00  0.00    +0.000 C 
ENDBRANCH  23  24
ENDBRANCH  11  23
ENDBRANCH   1   6
BRANCH   1  34
ATOM     28  O   UNL     1     112.320 128.860 137.397  0.00  0.00    +0.000 OA
ATOM     29  O   UNL     1     110.908 129.458 138.950  0.00  0.00    +0.000 OA
ATOM     30  C   UNL     1     111.654 130.238 138.014  0.00  0.00    +0.000 C 
ATOM     31  C   UNL     1     112.194 130.284 137.392  0.00  0.00    +0.000 C 
ATOM     32  C   UNL     1     111.447 129.504 138.328  0.00  0.00    +0.000 C 
ATOM     33  C   UNL     1     112.526 129.595 137.083  0.00  0.00    +0.000 C 
ATOM     34  C   UNL     1     111.780 128.815 138.020  0.00  0.00    +0.000 C 
ATOM     35  C   UNL     1     113.067 129.640 136.460  0.00  0.00    +0.000 C 
BRANCH  30  36
ATOM     36  O   UNL     1     111.322 130.927 138.322  0.00  0.00    +0.000 OA
BRANCH  36  41
ATOM     37  O   UNL     1     110.224 130.916 137.407  0.00  0.00    +0.000 OA
ATOM     38  O   UNL     1     110.400 131.747 139.418  0.00  0.00    +0.000 OA
ATOM     39  O   UNL     1     108.842 132.147 139.051  0.00  0.00    +0.000 OA
ATOM     40  O   UNL     1     108.205 131.726 137.588  0.00  0.00    +0.000 OA
ATOM     41  C   UNL     1     110.542 131.127 138.139  0.00  0.00    +0.000 C 
ATOM     42  C   UNL     1     110.082 131.537 138.687  0.00  0.00    +0.000 C 
ATOM     43  C   UNL     1     109.303 131.737 138.503  0.00  0.00    +0.000 C 
ATOM     44  C   UNL     1     108.984 131.527 137.772  0.00  0.00    +0.000 C 
ATOM     45  C   UNL     1     109.445 131.116 137.225  0.00  0.00    +0.000 C 
BRANCH  45  46
ATOM     46  C   UNL     1     109.126 130.906 136.493  0.00  0.00    +0.000 C 
BRANCH  46  47
ATOM     47  O   UNL     1     109.539 131.077 135.799  0.00  0.00    +0.000 OA
BRANCH  47  49
ATOM     48  O   UNL     1     108.506 130.976 134.817  0.00  0.00    +0.000 OA
ATOM     49  C   UNL     1     109.266 130.788 135.076  0.00  0.00    +0.000 C 
ATOM     50  C   UNL     1     109.755 130.311 134.612  0.00  0.00    +0.000 C 
ENDBRANCH  47  49
ENDBRANCH  46  47
ENDBRANCH  45  46
ENDBRANCH  36  41
ENDBRANCH  30  36
BRANCH  31  51
ATOM     51  O   UNL     1     112.401 131.018 137.077  0.00  0.00    +0.000 OA
BRANCH  51  53
ATOM     52  O   UNL     1     113.529 131.350 137.888  0.00  0.00    +0.000 OA
ATOM     53  C   UNL     1     113.175 131.292 137.145  0.00  0.00    +0.000 C 
ATOM     54  C   UNL     1     113.597 131.509 136.469  0.00  0.00    +0.000 C 
ENDBRANCH  51  53
ENDBRANCH  31  51
ENDBRANCH   1  34
TORSDOF 13
ENDMDL
MODEL 6
REMARK VINA RESULT:      -9.6      5.113      9.195
REMARK  Name = 44259072
REMARK  13 active torsions:
REMARK  status: ('A' for Active; 'I' for Inactive)
REMARK    1  A    between atoms: O_1  and  C_18
REMARK    2  A    between atoms: O_1  and  C_21
REMARK    3  A    between atoms: O_4  and  C_19
REMARK    4  A    between atoms: O_4  and  C_31
REMARK    5  A    between atoms: O_6  and  C_26
REMARK    6  A    between atoms: O_6  and  C_30
REMARK    7  A    between atoms: O_10  and  C_29
REMARK    8  A    between atoms: O_10  and  C_36
REMARK    9  A    between atoms: O_17  and  C_50
REMARK   10  A    between atoms: C_27  and  C_29
REMARK   11  A    between atoms: C_32  and  C_38
REMARK   12  A    between atoms: C_39  and  C_46
REMARK   13  A    between atoms: C_46  and  C_49
REMARK                            x       y       z     vdW  Elec       q    Type
REMARK                         _______ _______ _______ _____ _____    ______ ____
ROOT
ATOM      1  O   UNL     1     111.078 130.128 143.731  0.00  0.00    +0.000 OA
ENDROOT
BRANCH   1   6
ATOM      2  O   UNL     1     110.459 131.758 145.044  0.00  0.00    +0.000 OA
ATOM      3  O   UNL     1     112.208 131.272 143.361  0.00  0.00    +0.000 OA
ATOM      4  O   UNL     1     112.781 132.583 143.535  0.00  0.00    +0.000 OA
ATOM      5  O   UNL     1     111.562 134.423 145.448  0.00  0.00    +0.000 OA
ATOM      6  C   UNL     1     111.060 130.862 144.107  0.00  0.00    +0.000 A 
ATOM      7  C   UNL     1     110.477 131.024 144.668  0.00  0.00    +0.000 A 
ATOM      8  C   UNL     1     111.625 131.433 143.922  0.00  0.00    +0.000 A 
ATOM      9  C   UNL     1     111.608 132.167 144.298  0.00  0.00    +0.000 A 
ATOM     10  C   UNL     1     111.025 132.330 144.859  0.00  0.00    +0.000 A 
ATOM     11  C   UNL     1     110.996 133.091 145.258  0.00  0.00    +0.000 A 
ATOM     12  C   UNL     1     112.202 132.755 144.097  0.00  0.00    +0.000 A 
ATOM     13  C   UNL     1     111.582 133.690 145.070  0.00  0.00    +0.000 A 
ATOM     14  C   UNL     1     112.189 133.522 144.486  0.00  0.00    +0.000 A 
BRANCH   7  15
ATOM     15  C   UNL     1     109.912 130.453 144.853  0.00  0.00    +0.000 A 
ATOM     16  C   UNL     1     109.135 130.540 144.589  0.00  0.00    +0.000 A 
ATOM     17  C   UNL     1     110.122 129.793 145.302  0.00  0.00    +0.000 A 
ATOM     18  C   UNL     1     108.569 129.968 144.774  0.00  0.00    +0.000 A 
ATOM     19  C   UNL     1     109.558 129.222 145.487  0.00  0.00    +0.000 A 
ATOM     20  C   UNL     1     108.781 129.310 145.223  0.00  0.00    +0.000 A 
BRANCH  20  21
ATOM     21  O   UNL     1     108.215 128.738 145.408  0.00  0.00    +0.000 OA
ATOM     22  C   UNL     1     107.542 128.948 145.836  0.00  0.00    +0.000 C 
ENDBRANCH  20  21
ENDBRANCH   7  15
BRANCH  11  23
ATOM     23  C   UNL     1     110.409 133.244 145.818  0.00  0.00    +0.000 C 
BRANCH  23  24
ATOM     24  C   UNL     1     110.607 133.298 146.617  0.00  0.00    +0.000 C 
ATOM     25  C   UNL     1     110.014 133.397 147.182  0.00  0.00    +0.000 C 
ATOM     26  C   UNL     1     110.210 133.451 147.981  0.00  0.00    +0.000 C 
ATOM     27  C   UNL     1     109.224 133.440 146.947  0.00  0.00    +0.000 C 
ENDBRANCH  23  24
ENDBRANCH  11  23
ENDBRANCH   1   6
BRANCH   1  34
ATOM     28  O   UNL     1     110.551 130.630 142.501  0.00  0.00    +0.000 OA
ATOM     29  O   UNL     1     111.882 128.948 142.905  0.00  0.00    +0.000 OA
ATOM     30  C   UNL     1     111.356 129.449 141.675  0.00  0.00    +0.000 C 
ATOM     31  C   UNL     1     110.892 129.995 141.267  0.00  0.00    +0.000 C 
ATOM     32  C   UNL     1     111.418 129.493 142.497  0.00  0.00    +0.000 C 
ATOM     33  C   UNL     1     110.489 130.585 141.680  0.00  0.00    +0.000 C 
ATOM     34  C   UNL     1     111.016 130.083 142.910  0.00  0.00    +0.000 C 
ATOM     35  C   UNL     1     110.024 131.131 141.271  0.00  0.00    +0.000 C 
BRANCH  30  36
ATOM     36  O   UNL     1     111.758 128.859 141.262  0.00  0.00    +0.000 OA
BRANCH  36  41
ATOM     37  O   UNL     1     110.652 127.960 141.362  0.00  0.00    +0.000 OA
ATOM     38  O   UNL     1     112.770 127.585 140.991  0.00  0.00    +0.000 OA
ATOM     39  O   UNL     1     112.171 126.048 140.954  0.00  0.00    +0.000 OA
ATOM     40  O   UNL     1     110.559 125.786 141.189  0.00  0.00    +0.000 OA
ATOM     41  C   UNL     1     111.459 128.091 141.244  0.00  0.00    +0.000 C 
ATOM     42  C   UNL     1     111.965 127.454 141.108  0.00  0.00    +0.000 C 
ATOM     43  C   UNL     1     111.664 126.685 141.090  0.00  0.00    +0.000 C 
ATOM     44  C   UNL     1     110.859 126.554 141.207  0.00  0.00    +0.000 C 
ATOM     45  C   UNL     1     110.353 127.191 141.343  0.00  0.00    +0.000 C 
BRANCH  45  46
ATOM     46  C   UNL     1     109.546 127.060 141.461  0.00  0.00    +0.000 C 
BRANCH  46  47
ATOM     47  O   UNL     1     109.162 127.409 142.102  0.00  0.00    +0.000 OA
BRANCH  47  49
ATOM     48  O   UNL     1     108.014 126.707 142.585  0.00  0.00    +0.000 OA
ATOM     49  C   UNL     1     108.343 127.343 142.175  0.00  0.00    +0.000 C 
ATOM     50  C   UNL     1     107.852 127.915 141.838  0.00  0.00    +0.000 C 
ENDBRANCH  47  49
ENDBRANCH  46  47
ENDBRANCH  45  46
ENDBRANCH  36  41
ENDBRANCH  30  36
BRANCH  31  51
ATOM     51  O   UNL     1     110.829 129.951 140.445  0.00  0.00    +0.000 OA
BRANCH  51  53
ATOM     52  O   UNL     1     111.887 130.833 140.069  0.00  0.00    +0.000 OA
ATOM     53  C   UNL     1     111.112 130.567 139.976  0.00  0.00    +0.000 C 
ATOM     54  C   UNL     1     110.621 130.917 139.413  0.00  0.00    +0.000 C 
ENDBRANCH  51  53
ENDBRANCH  31  51
ENDBRANCH   1  34
TORSDOF 13
ENDMDL
MODEL 7
REMARK VINA RESULT:      -9.6      2.029      3.811
REMARK  Name = 44259072
REMARK  13 active torsions:
REMARK  status: ('A' for Active; 'I' for Inactive)
REMARK    1  A    between atoms: O_1  and  C_18
REMARK    2  A    between atoms: O_1  and  C_21
REMARK    3  A    between atoms: O_4  and  C_19
REMARK    4  A    between atoms: O_4  and  C_31
REMARK    5  A    between atoms: O_6  and  C_26
REMARK    6  A    between atoms: O_6  and  C_30
REMARK    7  A    between atoms: O_10  and  C_29
REMARK    8  A    between atoms: O_10  and  C_36
REMARK    9  A    between atoms: O_17  and  C_50
REMARK   10  A    between atoms: C_27  and  C_29
REMARK   11  A    between atoms: C_32  and  C_38
REMARK   12  A    between atoms: C_39  and  C_46
REMARK   13  A    between atoms: C_46  and  C_49
REMARK                            x       y       z     vdW  Elec       q    Type
REMARK                         _______ _______ _______ _____ _____    ______ ____
ROOT
ATOM      1  O   UNL     1     111.707 128.146 137.382  0.00  0.00    +0.000 OA
ENDROOT
BRANCH   1   6
ATOM      2  O   UNL     1     112.256 126.034 137.353  0.00  0.00    +0.000 OA
ATOM      3  O   UNL     1     113.162 128.214 136.607  0.00  0.00    +0.000 OA
ATOM      4  O   UNL     1     114.337 127.574 136.068  0.00  0.00    +0.000 OA
ATOM      5  O   UNL     1     114.600 124.673 136.287  0.00  0.00    +0.000 OA
ATOM      6  C   UNL     1     112.132 127.453 137.243  0.00  0.00    +0.000 A 
ATOM      7  C   UNL     1     111.830 126.727 137.492  0.00  0.00    +0.000 A 
ATOM      8  C   UNL     1     112.860 127.487 136.856  0.00  0.00    +0.000 A 
ATOM      9  C   UNL     1     113.285 126.794 136.717  0.00  0.00    +0.000 A 
ATOM     10  C   UNL     1     112.984 126.068 136.965  0.00  0.00    +0.000 A 
ATOM     11  C   UNL     1     113.418 125.339 136.827  0.00  0.00    +0.000 A 
ATOM     12  C   UNL     1     114.042 126.843 136.313  0.00  0.00    +0.000 A 
ATOM     13  C   UNL     1     114.176 125.368 136.424  0.00  0.00    +0.000 A 
ATOM     14  C   UNL     1     114.491 126.124 136.165  0.00  0.00    +0.000 A 
BRANCH   7  15
ATOM     15  C   UNL     1     111.103 126.693 137.879  0.00  0.00    +0.000 A 
ATOM     16  C   UNL     1     110.403 126.783 137.451  0.00  0.00    +0.000 A 
ATOM     17  C   UNL     1     111.074 126.569 138.694  0.00  0.00    +0.000 A 
ATOM     18  C   UNL     1     109.675 126.749 137.838  0.00  0.00    +0.000 A 
ATOM     19  C   UNL     1     110.347 126.535 139.081  0.00  0.00    +0.000 A 
ATOM     20  C   UNL     1     109.647 126.625 138.653  0.00  0.00    +0.000 A 
BRANCH  20  21
ATOM     21  O   UNL     1     108.919 126.591 139.040  0.00  0.00    +0.000 OA
ATOM     22  C   UNL     1     108.840 126.148 139.731  0.00  0.00    +0.000 C 
ENDBRANCH  20  21
ENDBRANCH   7  15
BRANCH  11  23
ATOM     23  C   UNL     1     113.108 124.617 137.079  0.00  0.00    +0.000 C 
BRANCH  23  24
ATOM     24  C   UNL     1     112.699 124.136 136.548  0.00  0.00    +0.000 C 
ATOM     25  C   UNL     1     112.344 123.440 136.811  0.00  0.00    +0.000 C 
ATOM     26  C   UNL     1     111.934 122.959 136.281  0.00  0.00    +0.000 C 
ATOM     27  C   UNL     1     112.398 123.225 137.606  0.00  0.00    +0.000 C 
ENDBRANCH  23  24
ENDBRANCH  11  23
ENDBRANCH   1   6
BRANCH   1  34
ATOM     28  O   UNL     1     112.525 128.593 138.465  0.00  0.00    +0.000 OA
ATOM     29  O   UNL     1     111.436 129.713 136.941  0.00  0.00    +0.000 OA
ATOM     30  C   UNL     1     112.254 130.159 138.023  0.00  0.00    +0.000 C 
ATOM     31  C   UNL     1     112.731 129.991 138.675  0.00  0.00    +0.000 C 
ATOM     32  C   UNL     1     111.912 129.545 137.592  0.00  0.00    +0.000 C 
ATOM     33  C   UNL     1     112.867 129.208 138.895  0.00  0.00    +0.000 C 
ATOM     34  C   UNL     1     112.048 128.761 137.812  0.00  0.00    +0.000 C 
ATOM     35  C   UNL     1     113.344 129.039 139.547  0.00  0.00    +0.000 C 
BRANCH  30  36
ATOM     36  O   UNL     1     112.119 130.943 137.803  0.00  0.00    +0.000 OA
BRANCH  36  41
ATOM     37  O   UNL     1     110.934 131.008 138.599  0.00  0.00    +0.000 OA
ATOM     38  O   UNL     1     111.616 132.261 136.948  0.00  0.00    +0.000 OA
ATOM     39  O   UNL     1     110.180 132.986 137.317  0.00  0.00    +0.000 OA
ATOM     40  O   UNL     1     109.247 132.391 138.540  0.00  0.00    +0.000 OA
ATOM     41  C   UNL     1     111.401 131.305 137.987  0.00  0.00    +0.000 C 
ATOM     42  C   UNL     1     111.150 131.964 137.559  0.00  0.00    +0.000 C 
ATOM     43  C   UNL     1     110.432 132.326 137.744  0.00  0.00    +0.000 C 
ATOM     44  C   UNL     1     109.965 132.029 138.355  0.00  0.00    +0.000 C 
ATOM     45  C   UNL     1     110.216 131.370 138.783  0.00  0.00    +0.000 C 
BRANCH  45  46
ATOM     46  C   UNL     1     109.749 131.073 139.396  0.00  0.00    +0.000 C 
BRANCH  46  47
ATOM     47  O   UNL     1     109.529 130.278 139.396  0.00  0.00    +0.000 OA
BRANCH  47  49
ATOM     48  O   UNL     1     108.290 129.874 139.985  0.00  0.00    +0.000 OA
ATOM     49  C   UNL     1     109.109 129.968 140.035  0.00  0.00    +0.000 C 
ATOM     50  C   UNL     1     109.507 129.752 140.725  0.00  0.00    +0.000 C 
ENDBRANCH  47  49
ENDBRANCH  46  47
ENDBRANCH  45  46
ENDBRANCH  36  41
ENDBRANCH  30  36
BRANCH  31  51
ATOM     51  O   UNL     1     113.073 130.606 139.106  0.00  0.00    +0.000 OA
BRANCH  51  53
ATOM     52  O   UNL     1     114.334 130.763 138.454  0.00  0.00    +0.000 OA
ATOM     53  C   UNL     1     113.893 130.676 139.146  0.00  0.00    +0.000 C 
ATOM     54  C   UNL     1     114.275 130.659 139.878  0.00  0.00    +0.000 C 
ENDBRANCH  51  53
ENDBRANCH  31  51
ENDBRANCH   1  34
TORSDOF 13
ENDMDL
MODEL 8
REMARK VINA RESULT:      -9.5      1.750      3.434
REMARK  Name = 44259072
REMARK  13 active torsions:
REMARK  status: ('A' for Active; 'I' for Inactive)
REMARK    1  A    between atoms: O_1  and  C_18
REMARK    2  A    between atoms: O_1  and  C_21
REMARK    3  A    between atoms: O_4  and  C_19
REMARK    4  A    between atoms: O_4  and  C_31
REMARK    5  A    between atoms: O_6  and  C_26
REMARK    6  A    between atoms: O_6  and  C_30
REMARK    7  A    between atoms: O_10  and  C_29
REMARK    8  A    between atoms: O_10  and  C_36
REMARK    9  A    between atoms: O_17  and  C_50
REMARK   10  A    between atoms: C_27  and  C_29
REMARK   11  A    between atoms: C_32  and  C_38
REMARK   12  A    between atoms: C_39  and  C_46
REMARK   13  A    between atoms: C_46  and  C_49
REMARK                            x       y       z     vdW  Elec       q    Type
REMARK                         _______ _______ _______ _____ _____    ______ ____
ROOT
ATOM      1  O   UNL     1     111.475 128.087 138.046  0.00  0.00    +0.000 OA
ENDROOT
BRANCH   1   6
ATOM      2  O   UNL     1     111.993 126.105 137.293  0.00  0.00    +0.000 OA
ATOM      3  O   UNL     1     112.985 127.897 138.682  0.00  0.00    +0.000 OA
ATOM      4  O   UNL     1     114.187 127.124 138.874  0.00  0.00    +0.000 OA
ATOM      5  O   UNL     1     114.389 124.486 137.635  0.00  0.00    +0.000 OA
ATOM      6  C   UNL     1     111.899 127.395 137.901  0.00  0.00    +0.000 A 
ATOM      7  C   UNL     1     111.568 126.798 137.437  0.00  0.00    +0.000 A 
ATOM      8  C   UNL     1     112.654 127.300 138.219  0.00  0.00    +0.000 A 
ATOM      9  C   UNL     1     113.078 126.608 138.074  0.00  0.00    +0.000 A 
ATOM     10  C   UNL     1     112.748 126.010 137.611  0.00  0.00    +0.000 A 
ATOM     11  C   UNL     1     113.180 125.284 137.453  0.00  0.00    +0.000 A 
ATOM     12  C   UNL     1     113.864 126.521 138.411  0.00  0.00    +0.000 A 
ATOM     13  C   UNL     1     113.966 125.179 137.782  0.00  0.00    +0.000 A 
ATOM     14  C   UNL     1     114.312 125.801 138.264  0.00  0.00    +0.000 A 
BRANCH   7  15
ATOM     15  C   UNL     1     110.814 126.893 137.119  0.00  0.00    +0.000 A 
ATOM     16  C   UNL     1     110.722 127.051 136.315  0.00  0.00    +0.000 A 
ATOM     17  C   UNL     1     110.149 126.830 137.605  0.00  0.00    +0.000 A 
ATOM     18  C   UNL     1     109.967 127.146 135.996  0.00  0.00    +0.000 A 
ATOM     19  C   UNL     1     109.395 126.925 137.287  0.00  0.00    +0.000 A 
ATOM     20  C   UNL     1     109.303 127.083 136.482  0.00  0.00    +0.000 A 
BRANCH  20  21
ATOM     21  O   UNL     1     108.548 127.178 136.163  0.00  0.00    +0.000 OA
ATOM     22  C   UNL     1     108.374 126.870 135.418  0.00  0.00    +0.000 C 
ENDBRANCH  20  21
ENDBRANCH   7  15
BRANCH  11  23
ATOM     23  C   UNL     1     112.841 124.692 136.988  0.00  0.00    +0.000 C 
BRANCH  23  24
ATOM     24  C   UNL     1     112.578 123.994 137.339  0.00  0.00    +0.000 C 
ATOM     25  C   UNL     1     112.154 123.443 136.894  0.00  0.00    +0.000 C 
ATOM     26  C   UNL     1     111.891 122.744 137.244  0.00  0.00    +0.000 C 
ATOM     27  C   UNL     1     111.994 123.592 136.098  0.00  0.00    +0.000 C 
ENDBRANCH  23  24
ENDBRANCH  11  23
ENDBRANCH   1   6
BRANCH   1  34
ATOM     28  O   UNL     1     112.315 128.833 137.162  0.00  0.00    +0.000 OA
ATOM     29  O   UNL     1     110.942 129.493 138.725  0.00  0.00    +0.000 OA
ATOM     30  C   UNL     1     111.782 130.239 137.842  0.00  0.00    +0.000 C 
ATOM     31  C   UNL     1     112.335 130.260 137.230  0.00  0.00    +0.000 C 
ATOM     32  C   UNL     1     111.495 129.515 138.114  0.00  0.00    +0.000 C 
ATOM     33  C   UNL     1     112.601 129.557 136.890  0.00  0.00    +0.000 C 
ATOM     34  C   UNL     1     111.761 128.812 137.774  0.00  0.00    +0.000 C 
ATOM     35  C   UNL     1     113.155 129.578 136.278  0.00  0.00    +0.000 C 
BRANCH  30  36
ATOM     36  O   UNL     1     111.516 130.942 138.181  0.00  0.00    +0.000 OA
BRANCH  36  41
ATOM     37  O   UNL     1     110.392 130.980 137.299  0.00  0.00    +0.000 OA
ATOM     38  O   UNL     1     110.787 132.054 139.158  0.00  0.00    +0.000 OA
ATOM     39  O   UNL     1     109.300 132.649 138.765  0.00  0.00    +0.000 OA
ATOM     40  O   UNL     1     108.540 132.132 137.394  0.00  0.00    +0.000 OA
ATOM     41  C   UNL     1     110.772 131.240 137.985  0.00  0.00    +0.000 C 
ATOM     42  C   UNL     1     110.408 131.796 138.474  0.00  0.00    +0.000 C 
ATOM     43  C   UNL     1     109.664 132.093 138.276  0.00  0.00    +0.000 C 
ATOM     44  C   UNL     1     109.284 131.834 137.592  0.00  0.00    +0.000 C 
ATOM     45  C   UNL     1     109.649 131.278 137.103  0.00  0.00    +0.000 C 
BRANCH  45  46
ATOM     46  C   UNL     1     109.269 131.019 136.417  0.00  0.00    +0.000 C 
BRANCH  46  47
ATOM     47  O   UNL     1     109.642 131.097 135.686  0.00  0.00    +0.000 OA
BRANCH  47  49
ATOM     48  O   UNL     1     108.566 130.968 134.754  0.00  0.00    +0.000 OA
ATOM     49  C   UNL     1     109.314 130.741 135.017  0.00  0.00    +0.000 C 
ATOM     50  C   UNL     1     109.736 130.158 134.612  0.00  0.00    +0.000 C 
ENDBRANCH  47  49
ENDBRANCH  46  47
ENDBRANCH  45  46
ENDBRANCH  36  41
ENDBRANCH  30  36
BRANCH  31  51
ATOM     51  O   UNL     1     112.622 130.984 136.958  0.00  0.00    +0.000 OA
BRANCH  51  53
ATOM     52  O   UNL     1     113.778 131.120 137.786  0.00  0.00    +0.000 OA
ATOM     53  C   UNL     1     113.421 131.170 137.044  0.00  0.00    +0.000 C 
ATOM     54  C   UNL     1     113.863 131.407 136.389  0.00  0.00    +0.000 C 
ENDBRANCH  51  53
ENDBRANCH  31  51
ENDBRANCH   1  34
TORSDOF 13
ENDMDL
MODEL 9
REMARK VINA RESULT:      -9.4      2.023      3.726
REMARK  Name = 44259072
REMARK  13 active torsions:
REMARK  status: ('A' for Active; 'I' for Inactive)
REMARK    1  A    between atoms: O_1  and  C_18
REMARK    2  A    between atoms: O_1  and  C_21
REMARK    3  A    between atoms: O_4  and  C_19
REMARK    4  A    between atoms: O_4  and  C_31
REMARK    5  A    between atoms: O_6  and  C_26
REMARK    6  A    between atoms: O_6  and  C_30
REMARK    7  A    between atoms: O_10  and  C_29
REMARK    8  A    between atoms: O_10  and  C_36
REMARK    9  A    between atoms: O_17  and  C_50
REMARK   10  A    between atoms: C_27  and  C_29
REMARK   11  A    between atoms: C_32  and  C_38
REMARK   12  A    between atoms: C_39  and  C_46
REMARK   13  A    between atoms: C_46  and  C_49
REMARK                            x       y       z     vdW  Elec       q    Type
REMARK                         _______ _______ _______ _____ _____    ______ ____
ROOT
ATOM      1  O   UNL     1     110.791 127.900 138.178  0.00  0.00    +0.000 OA
ENDROOT
BRANCH   1   6
ATOM      2  O   UNL     1     112.339 126.458 137.641  0.00  0.00    +0.000 OA
ATOM      3  O   UNL     1     111.842 128.088 139.436  0.00  0.00    +0.000 OA
ATOM      4  O   UNL     1     113.063 127.749 140.123  0.00  0.00    +0.000 OA
ATOM      5  O   UNL     1     114.823 125.721 138.972  0.00  0.00    +0.000 OA
ATOM      6  C   UNL     1     111.483 127.451 138.209  0.00  0.00    +0.000 A 
ATOM      7  C   UNL     1     111.648 126.907 137.610  0.00  0.00    +0.000 A 
ATOM      8  C   UNL     1     112.007 127.545 138.837  0.00  0.00    +0.000 A 
ATOM      9  C   UNL     1     112.699 127.096 138.868  0.00  0.00    +0.000 A 
ATOM     10  C   UNL     1     112.865 126.552 138.271  0.00  0.00    +0.000 A 
ATOM     11  C   UNL     1     113.581 126.078 138.291  0.00  0.00    +0.000 A 
ATOM     12  C   UNL     1     113.238 127.203 139.529  0.00  0.00    +0.000 A 
ATOM     13  C   UNL     1     114.132 126.172 138.944  0.00  0.00    +0.000 A 
ATOM     14  C   UNL     1     113.960 126.738 139.568  0.00  0.00    +0.000 A 
BRANCH   7  15
ATOM     15  C   UNL     1     111.123 126.813 136.981  0.00  0.00    +0.000 A 
ATOM     16  C   UNL     1     111.298 127.143 136.245  0.00  0.00    +0.000 A 
ATOM     17  C   UNL     1     110.423 126.390 137.087  0.00  0.00    +0.000 A 
ATOM     18  C   UNL     1     110.773 127.049 135.615  0.00  0.00    +0.000 A 
ATOM     19  C   UNL     1     109.898 126.295 136.458  0.00  0.00    +0.000 A 
ATOM     20  C   UNL     1     110.073 126.625 135.722  0.00  0.00    +0.000 A 
BRANCH  20  21
ATOM     21  O   UNL     1     109.548 126.531 135.092  0.00  0.00    +0.000 OA
ATOM     22  C   UNL     1     109.563 125.839 134.644  0.00  0.00    +0.000 C 
ENDBRANCH  20  21
ENDBRANCH   7  15
BRANCH  11  23
ATOM     23  C   UNL     1     113.739 125.537 137.689  0.00  0.00    +0.000 C 
BRANCH  23  24
ATOM     24  C   UNL     1     114.377 125.661 137.181  0.00  0.00    +0.000 C 
ATOM     25  C   UNL     1     114.501 125.152 136.544  0.00  0.00    +0.000 C 
ATOM     26  C   UNL     1     115.140 125.275 136.035  0.00  0.00    +0.000 C 
ATOM     27  C   UNL     1     113.987 124.520 136.414  0.00  0.00    +0.000 C 
ENDBRANCH  23  24
ENDBRANCH  11  23
ENDBRANCH   1   6
BRANCH   1  34
ATOM     28  O   UNL     1     111.513 129.084 137.831  0.00  0.00    +0.000 OA
ATOM     29  O   UNL     1     109.525 128.823 138.695  0.00  0.00    +0.000 OA
ATOM     30  C   UNL     1     110.247 130.007 138.349  0.00  0.00    +0.000 C 
ATOM     31  C   UNL     1     110.924 130.368 138.046  0.00  0.00    +0.000 C 
ATOM     32  C   UNL     1     110.202 129.184 138.393  0.00  0.00    +0.000 C 
ATOM     33  C   UNL     1     111.557 129.906 137.788  0.00  0.00    +0.000 C 
ATOM     34  C   UNL     1     110.835 128.722 138.134  0.00  0.00    +0.000 C 
ATOM     35  C   UNL     1     112.234 130.268 137.485  0.00  0.00    +0.000 C 
BRANCH  30  36
ATOM     36  O   UNL     1     109.614 130.468 138.608  0.00  0.00    +0.000 OA
BRANCH  36  41
ATOM     37  O   UNL     1     110.117 130.556 139.943  0.00  0.00    +0.000 OA
ATOM     38  O   UNL     1     108.081 130.708 139.169  0.00  0.00    +0.000 OA
ATOM     39  O   UNL     1     107.817 130.915 140.785  0.00  0.00    +0.000 OA
ATOM     40  O   UNL     1     109.086 130.882 141.839  0.00  0.00    +0.000 OA
ATOM     41  C   UNL     1     109.481 130.572 139.415  0.00  0.00    +0.000 C 
ATOM     42  C   UNL     1     108.715 130.692 139.696  0.00  0.00    +0.000 C 
ATOM     43  C   UNL     1     108.584 130.795 140.504  0.00  0.00    +0.000 C 
ATOM     44  C   UNL     1     109.218 130.779 141.031  0.00  0.00    +0.000 C 
ATOM     45  C   UNL     1     109.984 130.659 140.750  0.00  0.00    +0.000 C 
BRANCH  45  46
ATOM     46  C   UNL     1     110.619 130.643 141.277  0.00  0.00    +0.000 C 
BRANCH  46  47
ATOM     47  O   UNL     1     111.294 131.092 141.123  0.00  0.00    +0.000 OA
BRANCH  47  49
ATOM     48  O   UNL     1     112.007 131.735 142.182  0.00  0.00    +0.000 OA
ATOM     49  C   UNL     1     111.916 131.099 141.665  0.00  0.00    +0.000 C 
ATOM     50  C   UNL     1     112.448 130.468 141.688  0.00  0.00    +0.000 C 
ENDBRANCH  47  49
ENDBRANCH  46  47
ENDBRANCH  45  46
ENDBRANCH  36  41
ENDBRANCH  30  36
BRANCH  31  51
ATOM     51  O   UNL     1     110.968 131.191 138.002  0.00  0.00    +0.000 OA
BRANCH  51  53
ATOM     52  O   UNL     1     110.437 131.373 136.689  0.00  0.00    +0.000 OA
ATOM     53  C   UNL     1     110.993 131.564 137.268  0.00  0.00    +0.000 C 
ATOM     54  C   UNL     1     111.573 132.129 137.111  0.00  0.00    +0.000 C 
ENDBRANCH  51  53
ENDBRANCH  31  51
ENDBRANCH   1  34
TORSDOF 13
ENDMDL
MODEL 10
REMARK VINA RESULT:      -9.3      1.789      2.856
REMARK  Name = 44259072
REMARK  13 active torsions:
REMARK  status: ('A' for Active; 'I' for Inactive)
REMARK    1  A    between atoms: O_1  and  C_18
REMARK    2  A    between atoms: O_1  and  C_21
REMARK    3  A    between atoms: O_4  and  C_19
REMARK    4  A    between atoms: O_4  and  C_31
REMARK    5  A    between atoms: O_6  and  C_26
REMARK    6  A    between atoms: O_6  and  C_30
REMARK    7  A    between atoms: O_10  and  C_29
REMARK    8  A    between atoms: O_10  and  C_36
REMARK    9  A    between atoms: O_17  and  C_50
REMARK   10  A    between atoms: C_27  and  C_29
REMARK   11  A    between atoms: C_32  and  C_38
REMARK   12  A    between atoms: C_39  and  C_46
REMARK   13  A    between atoms: C_46  and  C_49
REMARK                            x       y       z     vdW  Elec       q    Type
REMARK                         _______ _______ _______ _____ _____    ______ ____
ROOT
ATOM      1  O   UNL     1     111.826 128.798 137.195  0.00  0.00    +0.000 OA
ENDROOT
BRANCH   1   6
ATOM      2  O   UNL     1     112.594 126.795 136.795  0.00  0.00    +0.000 OA
ATOM      3  O   UNL     1     110.729 127.875 138.011  0.00  0.00    +0.000 OA
ATOM      4  O   UNL     1     110.227 126.593 138.440  0.00  0.00    +0.000 OA
ATOM      5  O   UNL     1     111.640 124.171 137.622  0.00  0.00    +0.000 OA
ATOM      6  C   UNL     1     111.899 127.976 137.198  0.00  0.00    +0.000 A 
ATOM      7  C   UNL     1     112.521 127.617 136.792  0.00  0.00    +0.000 A 
ATOM      8  C   UNL     1     111.351 127.515 137.606  0.00  0.00    +0.000 A 
ATOM      9  C   UNL     1     111.424 126.694 137.608  0.00  0.00    +0.000 A 
ATOM     10  C   UNL     1     112.045 126.333 137.203  0.00  0.00    +0.000 A 
ATOM     11  C   UNL     1     112.133 125.478 137.198  0.00  0.00    +0.000 A 
ATOM     12  C   UNL     1     110.846 126.224 138.037  0.00  0.00    +0.000 A 
ATOM     13  C   UNL     1     111.565 124.992 137.621  0.00  0.00    +0.000 A 
ATOM     14  C   UNL     1     110.916 125.367 138.044  0.00  0.00    +0.000 A 
BRANCH   7  15
ATOM     15  C   UNL     1     113.070 128.078 136.384  0.00  0.00    +0.000 A 
ATOM     16  C   UNL     1     112.867 128.414 135.658  0.00  0.00    +0.000 A 
ATOM     17  C   UNL     1     113.821 128.204 136.701  0.00  0.00    +0.000 A 
ATOM     18  C   UNL     1     113.416 128.876 135.250  0.00  0.00    +0.000 A 
ATOM     19  C   UNL     1     114.369 128.665 136.293  0.00  0.00    +0.000 A 
ATOM     20  C   UNL     1     114.167 129.001 135.567  0.00  0.00    +0.000 A 
BRANCH  20  21
ATOM     21  O   UNL     1     114.716 129.463 135.159  0.00  0.00    +0.000 OA
ATOM     22  C   UNL     1     114.942 130.196 135.460  0.00  0.00    +0.000 C 
ENDBRANCH  20  21
ENDBRANCH   7  15
BRANCH  11  23
ATOM     23  C   UNL     1     112.758 125.127 136.790  0.00  0.00    +0.000 C 
BRANCH  23  24
ATOM     24  C   UNL     1     113.409 124.836 137.204  0.00  0.00    +0.000 C 
ATOM     25  C   UNL     1     114.067 124.556 136.794  0.00  0.00    +0.000 C 
ATOM     26  C   UNL     1     114.719 124.265 137.207  0.00  0.00    +0.000 C 
ATOM     27  C   UNL     1     114.074 124.567 135.968  0.00  0.00    +0.000 C 
ENDBRANCH  23  24
ENDBRANCH  11  23
ENDBRANCH   1   6
BRANCH   1  34
ATOM     28  O   UNL     1     112.282 128.883 138.547  0.00  0.00    +0.000 OA
ATOM     29  O   UNL     1     111.195 130.318 137.312  0.00  0.00    +0.000 OA
ATOM     30  C   UNL     1     111.651 130.404 138.664  0.00  0.00    +0.000 C 
ATOM     31  C   UNL     1     112.037 130.067 139.310  0.00  0.00    +0.000 C 
ATOM     32  C   UNL     1     111.581 129.981 137.958  0.00  0.00    +0.000 C 
ATOM     33  C   UNL     1     112.352 129.307 139.251  0.00  0.00    +0.000 C 
ATOM     34  C   UNL     1     111.896 129.221 137.900  0.00  0.00    +0.000 C 
ATOM     35  C   UNL     1     112.738 128.969 139.898  0.00  0.00    +0.000 C 
BRANCH  30  36
ATOM     36  O   UNL     1     111.336 131.164 138.722  0.00  0.00    +0.000 OA
BRANCH  36  41
ATOM     37  O   UNL     1     110.066 130.719 139.204  0.00  0.00    +0.000 OA
ATOM     38  O   UNL     1     110.612 132.470 138.021  0.00  0.00    +0.000 OA
ATOM     39  O   UNL     1     108.981 132.679 138.153  0.00  0.00    +0.000 OA
ATOM     40  O   UNL     1     108.073 131.581 138.985  0.00  0.00    +0.000 OA
ATOM     41  C   UNL     1     110.520 131.268 138.788  0.00  0.00    +0.000 C 
ATOM     42  C   UNL     1     110.158 131.922 138.437  0.00  0.00    +0.000 C 
ATOM     43  C   UNL     1     109.342 132.026 138.503  0.00  0.00    +0.000 C 
ATOM     44  C   UNL     1     108.889 131.477 138.919  0.00  0.00    +0.000 C 
ATOM     45  C   UNL     1     109.251 130.824 139.270  0.00  0.00    +0.000 C 
BRANCH  45  46
ATOM     46  C   UNL     1     108.797 130.274 139.686  0.00  0.00    +0.000 C 
BRANCH  46  47
ATOM     47  O   UNL     1     109.067 129.979 140.407  0.00  0.00    +0.000 OA
BRANCH  47  49
ATOM     48  O   UNL     1     108.580 128.635 140.396  0.00  0.00    +0.000 OA
ATOM     49  C   UNL     1     108.662 129.362 140.777  0.00  0.00    +0.000 C 
ATOM     50  C   UNL     1     108.340 129.473 141.529  0.00  0.00    +0.000 C 
ENDBRANCH  47  49
ENDBRANCH  46  47
ENDBRANCH  45  46
ENDBRANCH  36  41
ENDBRANCH  30  36
BRANCH  31  51
ATOM     51  O   UNL     1     112.107 130.489 140.015  0.00  0.00    +0.000 OA
BRANCH  51  53
ATOM     52  O   UNL     1     113.446 130.975 139.906  0.00  0.00    +0.000 OA
ATOM     53  C   UNL     1     112.851 130.614 140.349  0.00  0.00    +0.000 C 
ATOM     54  C   UNL     1     113.000 130.379 141.126  0.00  0.00    +0.000 C 
ENDBRANCH  51  53
ENDBRANCH  31  51
ENDBRANCH   1  34
TORSDOF 13
ENDMDL
