MODEL 1
REMARK VINA RESULT:      -9.2      0.000      0.000
REMARK  Name = 44258413
REMARK  4 active torsions:
REMARK  status: ('A' for Active; 'I' for Inactive)
REMARK    1  A    between atoms: O_2  and  C_14
REMARK    2  A    between atoms: O_2  and  C_16
REMARK    3  A    between atoms: O_7  and  C_18
REMARK    4  A    between atoms: C_23  and  C_25
REMARK                            x       y       z     vdW  Elec       q    Type
REMARK                         _______ _______ _______ _____ _____    ______ ____
ROOT
ATOM      1  O   UNL     1     113.923 127.231 136.125  0.00  0.00    +0.000 OA
ATOM      2  O   UNL     1     114.680 129.690 134.829  0.00  0.00    +0.000 OA
ATOM      3  O   UNL     1     112.878 128.579 137.996  0.00  0.00    +0.000 OA
ATOM      4  C   UNL     1     113.616 129.351 136.705  0.00  0.00    +0.000 A 
ATOM      5  C   UNL     1     113.596 128.527 136.726  0.00  0.00    +0.000 A 
ATOM      6  C   UNL     1     113.978 129.739 136.073  0.00  0.00    +0.000 A 
ATOM      7  C   UNL     1     113.937 128.090 136.114  0.00  0.00    +0.000 A 
ATOM      8  C   UNL     1     114.319 129.303 135.462  0.00  0.00    +0.000 A 
ATOM      9  C   UNL     1     113.217 128.134 137.390  0.00  0.00    +0.000 A 
ATOM     10  C   UNL     1     114.299 128.478 135.482  0.00  0.00    +0.000 A 
ATOM     11  C   UNL     1     113.548 126.821 136.780  0.00  0.00    +0.000 A 
ATOM     12  C   UNL     1     113.193 127.276 137.417  0.00  0.00    +0.000 A 
ENDROOT
BRANCH  11  13
ATOM     13  C   UNL     1     113.530 125.996 136.798  0.00  0.00    +0.000 A 
ATOM     14  C   UNL     1     112.872 125.591 136.507  0.00  0.00    +0.000 A 
ATOM     15  C   UNL     1     114.169 125.576 137.106  0.00  0.00    +0.000 A 
ATOM     16  C   UNL     1     112.855 124.767 136.524  0.00  0.00    +0.000 A 
ATOM     17  C   UNL     1     114.152 124.752 137.124  0.00  0.00    +0.000 A 
ATOM     18  C   UNL     1     113.495 124.347 136.833  0.00  0.00    +0.000 A 
ENDBRANCH  11  13
BRANCH   6  19
ATOM     19  O   UNL     1     113.998 130.563 136.052  0.00  0.00    +0.000 OA
ATOM     20  C   UNL     1     114.683 130.953 135.811  0.00  0.00    +0.000 C 
ENDBRANCH   6  19
BRANCH   4  21
ATOM     21  O   UNL     1     113.275 129.787 137.316  0.00  0.00    +0.000 OA
BRANCH  21  30
ATOM     22  O   UNL     1     112.044 129.890 136.597  0.00  0.00    +0.000 OA
ATOM     23  O   UNL     1     111.317 131.713 138.104  0.00  0.00    +0.000 OA
ATOM     24  O   UNL     1     110.329 131.209 136.883  0.00  0.00    +0.000 OA
ATOM     25  O   UNL     1     112.790 131.002 138.321  0.00  0.00    +0.000 OA
ATOM     26  C   UNL     1     111.559 131.106 137.602  0.00  0.00    +0.000 C 
ATOM     27  C   UNL     1     111.066 130.854 136.992  0.00  0.00    +0.000 C 
ATOM     28  C   UNL     1     112.295 130.751 137.710  0.00  0.00    +0.000 C 
ATOM     29  C   UNL     1     111.308 130.246 136.489  0.00  0.00    +0.000 C 
ATOM     30  C   UNL     1     112.538 130.143 137.208  0.00  0.00    +0.000 C 
ATOM     31  C   UNL     1     110.814 129.994 135.878  0.00  0.00    +0.000 C 
ENDBRANCH  21  30
ENDBRANCH   4  21
TORSDOF 4
ENDMDL
MODEL 2
REMARK VINA RESULT:      -9.1      2.269      4.660
REMARK  Name = 44258413
REMARK  4 active torsions:
REMARK  status: ('A' for Active; 'I' for Inactive)
REMARK    1  A    between atoms: O_2  and  C_14
REMARK    2  A    between atoms: O_2  and  C_16
REMARK    3  A    between atoms: O_7  and  C_18
REMARK    4  A    between atoms: C_23  and  C_25
REMARK                            x       y       z     vdW  Elec       q    Type
REMARK                         _______ _______ _______ _____ _____    ______ ____
ROOT
ATOM      1  O   UNL     1     112.632 128.845 135.442  0.00  0.00    +0.000 OA
ATOM      2  O   UNL     1     110.090 127.742 134.653  0.00  0.00    +0.000 OA
ATOM      3  O   UNL     1     113.237 126.618 136.482  0.00  0.00    +0.000 OA
ATOM      4  C   UNL     1     111.755 126.828 135.730  0.00  0.00    +0.000 A 
ATOM      5  C   UNL     1     112.286 127.457 135.759  0.00  0.00    +0.000 A 
ATOM      6  C   UNL     1     111.022 126.922 135.362  0.00  0.00    +0.000 A 
ATOM      7  C   UNL     1     112.086 128.182 135.419  0.00  0.00    +0.000 A 
ATOM      8  C   UNL     1     110.822 127.647 135.022  0.00  0.00    +0.000 A 
ATOM      9  C   UNL     1     113.046 127.346 136.145  0.00  0.00    +0.000 A 
ATOM     10  C   UNL     1     111.355 128.277 135.050  0.00  0.00    +0.000 A 
ATOM     11  C   UNL     1     113.396 128.753 135.824  0.00  0.00    +0.000 A 
ATOM     12  C   UNL     1     113.604 127.998 136.178  0.00  0.00    +0.000 A 
ENDROOT
BRANCH  11  13
ATOM     13  C   UNL     1     113.926 129.385 135.851  0.00  0.00    +0.000 A 
ATOM     14  C   UNL     1     113.918 129.904 136.492  0.00  0.00    +0.000 A 
ATOM     15  C   UNL     1     114.463 129.498 135.235  0.00  0.00    +0.000 A 
ATOM     16  C   UNL     1     114.448 130.536 136.518  0.00  0.00    +0.000 A 
ATOM     17  C   UNL     1     114.993 130.130 135.261  0.00  0.00    +0.000 A 
ATOM     18  C   UNL     1     114.986 130.649 135.902  0.00  0.00    +0.000 A 
ENDBRANCH  11  13
BRANCH   6  19
ATOM     19  O   UNL     1     110.490 126.293 135.333  0.00  0.00    +0.000 OA
ATOM     20  C   UNL     1     110.079 126.131 134.637  0.00  0.00    +0.000 C 
ENDBRANCH   6  19
BRANCH   4  21
ATOM     21  O   UNL     1     111.955 126.103 136.070  0.00  0.00    +0.000 OA
BRANCH  21  30
ATOM     22  O   UNL     1     111.336 126.479 137.302  0.00  0.00    +0.000 OA
ATOM     23  O   UNL     1     111.385 124.119 138.046  0.00  0.00    +0.000 OA
ATOM     24  O   UNL     1     110.750 125.281 139.030  0.00  0.00    +0.000 OA
ATOM     25  O   UNL     1     111.988 124.530 136.566  0.00  0.00    +0.000 OA
ATOM     26  C   UNL     1     111.369 124.906 137.798  0.00  0.00    +0.000 C 
ATOM     27  C   UNL     1     111.052 125.486 138.290  0.00  0.00    +0.000 C 
ATOM     28  C   UNL     1     111.670 125.111 137.059  0.00  0.00    +0.000 C 
ATOM     29  C   UNL     1     111.035 126.273 138.042  0.00  0.00    +0.000 C 
ATOM     30  C   UNL     1     111.653 125.897 136.811  0.00  0.00    +0.000 C 
ATOM     31  C   UNL     1     110.717 126.854 138.534  0.00  0.00    +0.000 C 
ENDBRANCH  21  30
ENDBRANCH   4  21
TORSDOF 4
ENDMDL
MODEL 3
REMARK VINA RESULT:      -9.0      2.142      4.507
REMARK  Name = 44258413
REMARK  4 active torsions:
REMARK  status: ('A' for Active; 'I' for Inactive)
REMARK    1  A    between atoms: O_2  and  C_14
REMARK    2  A    between atoms: O_2  and  C_16
REMARK    3  A    between atoms: O_7  and  C_18
REMARK    4  A    between atoms: C_23  and  C_25
REMARK                            x       y       z     vdW  Elec       q    Type
REMARK                         _______ _______ _______ _____ _____    ______ ____
ROOT
ATOM      1  O   UNL     1     114.270 127.552 136.058  0.00  0.00    +0.000 OA
ATOM      2  O   UNL     1     114.516 124.762 136.736  0.00  0.00    +0.000 OA
ATOM      3  O   UNL     1     111.835 127.469 136.751  0.00  0.00    +0.000 OA
ATOM      4  C   UNL     1     112.794 126.098 136.853  0.00  0.00    +0.000 A 
ATOM      5  C   UNL     1     113.122 126.801 136.575  0.00  0.00    +0.000 A 
ATOM      6  C   UNL     1     113.258 125.418 136.908  0.00  0.00    +0.000 A 
ATOM      7  C   UNL     1     113.915 126.825 136.350  0.00  0.00    +0.000 A 
ATOM      8  C   UNL     1     114.051 125.442 136.683  0.00  0.00    +0.000 A 
ATOM      9  C   UNL     1     112.628 127.503 136.523  0.00  0.00    +0.000 A 
ATOM     10  C   UNL     1     114.380 126.146 136.404  0.00  0.00    +0.000 A 
ATOM     11  C   UNL     1     113.791 128.263 136.000  0.00  0.00    +0.000 A 
ATOM     12  C   UNL     1     112.965 128.238 136.234  0.00  0.00    +0.000 A 
ENDROOT
BRANCH  11  13
ATOM     13  C   UNL     1     114.123 128.965 135.721  0.00  0.00    +0.000 A 
ATOM     14  C   UNL     1     114.284 129.054 134.917  0.00  0.00    +0.000 A 
ATOM     15  C   UNL     1     114.295 129.577 136.247  0.00  0.00    +0.000 A 
ATOM     16  C   UNL     1     114.616 129.756 134.638  0.00  0.00    +0.000 A 
ATOM     17  C   UNL     1     114.627 130.279 135.968  0.00  0.00    +0.000 A 
ATOM     18  C   UNL     1     114.788 130.369 135.164  0.00  0.00    +0.000 A 
ENDBRANCH  11  13
BRANCH   6  19
ATOM     19  O   UNL     1     112.929 124.715 137.186  0.00  0.00    +0.000 OA
ATOM     20  C   UNL     1     113.102 124.002 136.811  0.00  0.00    +0.000 C 
ENDBRANCH   6  19
BRANCH   4  21
ATOM     21  O   UNL     1     112.000 126.074 137.078  0.00  0.00    +0.000 OA
BRANCH  21  30
ATOM     22  O   UNL     1     112.354 126.346 138.436  0.00  0.00    +0.000 OA
ATOM     23  O   UNL     1     110.073 125.711 139.157  0.00  0.00    +0.000 OA
ATOM     24  O   UNL     1     111.186 126.194 140.274  0.00  0.00    +0.000 OA
ATOM     25  O   UNL     1     110.480 125.651 137.559  0.00  0.00    +0.000 OA
ATOM     26  C   UNL     1     110.833 125.923 138.917  0.00  0.00    +0.000 C 
ATOM     27  C   UNL     1     111.389 126.164 139.475  0.00  0.00    +0.000 C 
ATOM     28  C   UNL     1     111.036 125.893 138.118  0.00  0.00    +0.000 C 
ATOM     29  C   UNL     1     112.150 126.376 139.235  0.00  0.00    +0.000 C 
ATOM     30  C   UNL     1     111.796 126.104 137.878  0.00  0.00    +0.000 C 
ATOM     31  C   UNL     1     112.707 126.617 139.794  0.00  0.00    +0.000 C 
ENDBRANCH  21  30
ENDBRANCH   4  21
TORSDOF 4
ENDMDL
MODEL 4
REMARK VINA RESULT:      -9.0      1.359      1.913
REMARK  Name = 44258413
REMARK  4 active torsions:
REMARK  status: ('A' for Active; 'I' for Inactive)
REMARK    1  A    between atoms: O_2  and  C_14
REMARK    2  A    between atoms: O_2  and  C_16
REMARK    3  A    between atoms: O_7  and  C_18
REMARK    4  A    between atoms: C_23  and  C_25
REMARK                            x       y       z     vdW  Elec       q    Type
REMARK                         _______ _______ _______ _____ _____    ______ ____
ROOT
ATOM      1  O   UNL     1     113.520 127.351 136.634  0.00  0.00    +0.000 OA
ATOM      2  O   UNL     1     113.451 130.125 135.861  0.00  0.00    +0.000 OA
ATOM      3  O   UNL     1     111.279 127.649 137.775  0.00  0.00    +0.000 OA
ATOM      4  C   UNL     1     112.013 128.939 136.996  0.00  0.00    +0.000 A 
ATOM      5  C   UNL     1     112.388 128.205 137.005  0.00  0.00    +0.000 A 
ATOM      6  C   UNL     1     112.367 129.579 136.614  0.00  0.00    +0.000 A 
ATOM      7  C   UNL     1     113.119 128.111 136.632  0.00  0.00    +0.000 A 
ATOM      8  C   UNL     1     113.097 129.485 136.242  0.00  0.00    +0.000 A 
ATOM      9  C   UNL     1     112.009 127.545 137.405  0.00  0.00    +0.000 A 
ATOM     10  C   UNL     1     113.473 128.750 136.251  0.00  0.00    +0.000 A 
ATOM     11  C   UNL     1     113.156 126.680 137.030  0.00  0.00    +0.000 A 
ATOM     12  C   UNL     1     112.396 126.778 137.418  0.00  0.00    +0.000 A 
ENDROOT
BRANCH  11  13
ATOM     13  C   UNL     1     113.535 125.947 137.037  0.00  0.00    +0.000 A 
ATOM     14  C   UNL     1     113.324 125.368 136.489  0.00  0.00    +0.000 A 
ATOM     15  C   UNL     1     114.126 125.794 137.592  0.00  0.00    +0.000 A 
ATOM     16  C   UNL     1     113.703 124.635 136.496  0.00  0.00    +0.000 A 
ATOM     17  C   UNL     1     114.505 125.061 137.599  0.00  0.00    +0.000 A 
ATOM     18  C   UNL     1     114.294 124.482 137.052  0.00  0.00    +0.000 A 
ENDBRANCH  11  13
BRANCH   6  19
ATOM     19  O   UNL     1     111.991 130.313 136.606  0.00  0.00    +0.000 OA
ATOM     20  C   UNL     1     112.421 130.999 136.763  0.00  0.00    +0.000 C 
ENDBRANCH   6  19
BRANCH   4  21
ATOM     21  O   UNL     1     111.283 129.033 137.368  0.00  0.00    +0.000 OA
BRANCH  21  30
ATOM     22  O   UNL     1     110.589 128.754 136.150  0.00  0.00    +0.000 OA
ATOM     23  O   UNL     1     108.515 129.699 137.115  0.00  0.00    +0.000 OA
ATOM     24  O   UNL     1     108.513 129.105 135.575  0.00  0.00    +0.000 OA
ATOM     25  O   UNL     1     109.900 129.663 138.011  0.00  0.00    +0.000 OA
ATOM     26  C   UNL     1     109.207 129.384 136.793  0.00  0.00    +0.000 C 
ATOM     27  C   UNL     1     109.205 129.087 136.024  0.00  0.00    +0.000 C 
ATOM     28  C   UNL     1     109.898 129.366 137.241  0.00  0.00    +0.000 C 
ATOM     29  C   UNL     1     109.897 128.772 135.703  0.00  0.00    +0.000 C 
ATOM     30  C   UNL     1     110.590 129.051 136.920  0.00  0.00    +0.000 C 
ATOM     31  C   UNL     1     109.896 128.475 134.932  0.00  0.00    +0.000 C 
ENDBRANCH  21  30
ENDBRANCH   4  21
TORSDOF 4
ENDMDL
MODEL 5
REMARK VINA RESULT:      -8.9     13.090     14.149
REMARK  Name = 44258413
REMARK  4 active torsions:
REMARK  status: ('A' for Active; 'I' for Inactive)
REMARK    1  A    between atoms: O_2  and  C_14
REMARK    2  A    between atoms: O_2  and  C_16
REMARK    3  A    between atoms: O_7  and  C_18
REMARK    4  A    between atoms: C_23  and  C_25
REMARK                            x       y       z     vdW  Elec       q    Type
REMARK                         _______ _______ _______ _____ _____    ______ ____
ROOT
ATOM      1  O   UNL     1     103.776 124.591 148.475  0.00  0.00    +0.000 OA
ATOM      2  O   UNL     1     106.493 125.448 148.909  0.00  0.00    +0.000 OA
ATOM      3  O   UNL     1     104.346 124.127 146.052  0.00  0.00    +0.000 OA
ATOM      4  C   UNL     1     105.514 124.716 147.100  0.00  0.00    +0.000 A 
ATOM      5  C   UNL     1     104.751 124.578 147.380  0.00  0.00    +0.000 A 
ATOM      6  C   UNL     1     106.095 125.006 147.609  0.00  0.00    +0.000 A 
ATOM      7  C   UNL     1     104.568 124.731 148.170  0.00  0.00    +0.000 A 
ATOM      8  C   UNL     1     105.912 125.158 148.399  0.00  0.00    +0.000 A 
ATOM      9  C   UNL     1     104.154 124.276 146.840  0.00  0.00    +0.000 A 
ATOM     10  C   UNL     1     105.148 125.020 148.680  0.00  0.00    +0.000 A 
ATOM     11  C   UNL     1     103.167 124.289 147.949  0.00  0.00    +0.000 A 
ATOM     12  C   UNL     1     103.357 124.131 147.127  0.00  0.00    +0.000 A 
ENDROOT
BRANCH  11  13
ATOM     13  C   UNL     1     102.405 124.153 148.234  0.00  0.00    +0.000 A 
ATOM     14  C   UNL     1     101.846 124.760 148.228  0.00  0.00    +0.000 A 
ATOM     15  C   UNL     1     102.200 123.408 148.524  0.00  0.00    +0.000 A 
ATOM     16  C   UNL     1     101.084 124.623 148.512  0.00  0.00    +0.000 A 
ATOM     17  C   UNL     1     101.438 123.271 148.808  0.00  0.00    +0.000 A 
ATOM     18  C   UNL     1     100.880 123.878 148.802  0.00  0.00    +0.000 A 
ENDBRANCH  11  13
BRANCH   6  19
ATOM     19  O   UNL     1     106.858 125.143 147.328  0.00  0.00    +0.000 OA
ATOM     20  C   UNL     1     107.508 125.009 147.817  0.00  0.00    +0.000 C 
ENDBRANCH   6  19
BRANCH   4  21
ATOM     21  O   UNL     1     105.696 124.564 146.310  0.00  0.00    +0.000 OA
BRANCH  21  30
ATOM     22  O   UNL     1     105.427 125.925 145.966  0.00  0.00    +0.000 OA
ATOM     23  O   UNL     1     106.470 125.571 143.750  0.00  0.00    +0.000 OA
ATOM     24  O   UNL     1     105.853 127.049 144.145  0.00  0.00    +0.000 OA
ATOM     25  O   UNL     1     106.391 124.328 144.832  0.00  0.00    +0.000 OA
ATOM     26  C   UNL     1     106.122 125.689 144.488  0.00  0.00    +0.000 C 
ATOM     27  C   UNL     1     105.814 126.427 144.686  0.00  0.00    +0.000 C 
ATOM     28  C   UNL     1     106.083 125.068 145.029  0.00  0.00    +0.000 C 
ATOM     29  C   UNL     1     105.466 126.545 145.425  0.00  0.00    +0.000 C 
ATOM     30  C   UNL     1     105.736 125.186 145.768  0.00  0.00    +0.000 C 
ATOM     31  C   UNL     1     105.158 127.285 145.622  0.00  0.00    +0.000 C 
ENDBRANCH  21  30
ENDBRANCH   4  21
TORSDOF 4
ENDMDL
MODEL 6
REMARK VINA RESULT:      -8.8      2.438      3.444
REMARK  Name = 44258413
REMARK  4 active torsions:
REMARK  status: ('A' for Active; 'I' for Inactive)
REMARK    1  A    between atoms: O_2  and  C_14
REMARK    2  A    between atoms: O_2  and  C_16
REMARK    3  A    between atoms: O_7  and  C_18
REMARK    4  A    between atoms: C_23  and  C_25
REMARK                            x       y       z     vdW  Elec       q    Type
REMARK                         _______ _______ _______ _____ _____    ______ ____
ROOT
ATOM      1  O   UNL     1     112.053 125.542 136.046  0.00  0.00    +0.000 OA
ATOM      2  O   UNL     1     109.537 125.705 134.653  0.00  0.00    +0.000 OA
ATOM      3  O   UNL     1     111.306 127.441 137.546  0.00  0.00    +0.000 OA
ATOM      4  C   UNL     1     110.300 126.872 136.332  0.00  0.00    +0.000 A 
ATOM      5  C   UNL     1     111.041 126.528 136.437  0.00  0.00    +0.000 A 
ATOM      6  C   UNL     1     109.797 126.598 135.738  0.00  0.00    +0.000 A 
ATOM      7  C   UNL     1     111.282 125.909 135.947  0.00  0.00    +0.000 A 
ATOM      8  C   UNL     1     110.038 125.980 135.247  0.00  0.00    +0.000 A 
ATOM      9  C   UNL     1     111.555 126.822 137.060  0.00  0.00    +0.000 A 
ATOM     10  C   UNL     1     110.781 125.635 135.352  0.00  0.00    +0.000 A 
ATOM     11  C   UNL     1     112.580 125.823 136.664  0.00  0.00    +0.000 A 
ATOM     12  C   UNL     1     112.329 126.467 137.174  0.00  0.00    +0.000 A 
ENDROOT
BRANCH  11  13
ATOM     13  C   UNL     1     113.322 125.477 136.766  0.00  0.00    +0.000 A 
ATOM     14  C   UNL     1     113.990 125.822 136.425  0.00  0.00    +0.000 A 
ATOM     15  C   UNL     1     113.396 124.784 137.208  0.00  0.00    +0.000 A 
ATOM     16  C   UNL     1     114.731 125.474 136.527  0.00  0.00    +0.000 A 
ATOM     17  C   UNL     1     114.137 124.437 137.311  0.00  0.00    +0.000 A 
ATOM     18  C   UNL     1     114.804 124.782 136.970  0.00  0.00    +0.000 A 
ENDBRANCH  11  13
BRANCH   6  19
ATOM     19  O   UNL     1     109.055 126.942 135.633  0.00  0.00    +0.000 OA
ATOM     20  C   UNL     1     108.403 126.470 135.459  0.00  0.00    +0.000 C 
ENDBRANCH   6  19
BRANCH   4  21
ATOM     21  O   UNL     1     110.059 127.490 136.823  0.00  0.00    +0.000 OA
BRANCH  21  30
ATOM     22  O   UNL     1     110.552 128.460 135.897  0.00  0.00    +0.000 OA
ATOM     23  O   UNL     1     109.225 130.216 137.029  0.00  0.00    +0.000 OA
ATOM     24  O   UNL     1     110.160 130.601 135.725  0.00  0.00    +0.000 OA
ATOM     25  O   UNL     1     109.174 128.660 137.577  0.00  0.00    +0.000 OA
ATOM     26  C   UNL     1     109.667 129.631 136.651  0.00  0.00    +0.000 C 
ATOM     27  C   UNL     1     110.135 129.823 136.000  0.00  0.00    +0.000 C 
ATOM     28  C   UNL     1     109.642 128.854 136.926  0.00  0.00    +0.000 C 
ATOM     29  C   UNL     1     110.577 129.238 135.623  0.00  0.00    +0.000 C 
ATOM     30  C   UNL     1     110.084 128.268 136.548  0.00  0.00    +0.000 C 
ATOM     31  C   UNL     1     111.045 129.430 134.971  0.00  0.00    +0.000 C 
ENDBRANCH  21  30
ENDBRANCH   4  21
TORSDOF 4
ENDMDL
MODEL 7
REMARK VINA RESULT:      -8.8      1.919      3.957
REMARK  Name = 44258413
REMARK  4 active torsions:
REMARK  status: ('A' for Active; 'I' for Inactive)
REMARK    1  A    between atoms: O_2  and  C_14
REMARK    2  A    between atoms: O_2  and  C_16
REMARK    3  A    between atoms: O_7  and  C_18
REMARK    4  A    between atoms: C_23  and  C_25
REMARK                            x       y       z     vdW  Elec       q    Type
REMARK                         _______ _______ _______ _____ _____    ______ ____
ROOT
ATOM      1  O   UNL     1     113.741 128.525 135.974  0.00  0.00    +0.000 OA
ATOM      2  O   UNL     1     112.488 126.222 137.168  0.00  0.00    +0.000 OA
ATOM      3  O   UNL     1     111.539 129.107 134.868  0.00  0.00    +0.000 OA
ATOM      4  C   UNL     1     111.665 127.752 135.847  0.00  0.00    +0.000 A 
ATOM      5  C   UNL     1     112.327 128.228 135.728  0.00  0.00    +0.000 A 
ATOM      6  C   UNL     1     111.718 127.083 136.327  0.00  0.00    +0.000 A 
ATOM      7  C   UNL     1     113.044 128.036 136.090  0.00  0.00    +0.000 A 
ATOM      8  C   UNL     1     112.434 126.891 136.688  0.00  0.00    +0.000 A 
ATOM      9  C   UNL     1     112.259 128.923 135.226  0.00  0.00    +0.000 A 
ATOM     10  C   UNL     1     113.097 127.368 136.570  0.00  0.00    +0.000 A 
ATOM     11  C   UNL     1     113.692 129.223 135.475  0.00  0.00    +0.000 A 
ATOM     12  C   UNL     1     112.946 129.423 135.099  0.00  0.00    +0.000 A 
ENDROOT
BRANCH  11  13
ATOM     13  C   UNL     1     114.357 129.697 135.359  0.00  0.00    +0.000 A 
ATOM     14  C   UNL     1     114.867 129.547 134.728  0.00  0.00    +0.000 A 
ATOM     15  C   UNL     1     114.512 130.323 135.874  0.00  0.00    +0.000 A 
ATOM     16  C   UNL     1     115.532 130.021 134.612  0.00  0.00    +0.000 A 
ATOM     17  C   UNL     1     115.177 130.797 135.759  0.00  0.00    +0.000 A 
ATOM     18  C   UNL     1     115.687 130.647 135.128  0.00  0.00    +0.000 A 
ENDBRANCH  11  13
BRANCH   6  19
ATOM     19  O   UNL     1     111.055 126.607 136.445  0.00  0.00    +0.000 OA
ATOM     20  C   UNL     1     111.135 125.786 136.464  0.00  0.00    +0.000 C 
ENDBRANCH   6  19
BRANCH   4  21
ATOM     21  O   UNL     1     110.949 127.944 135.485  0.00  0.00    +0.000 OA
BRANCH  21  30
ATOM     22  O   UNL     1     110.542 128.703 136.625  0.00  0.00    +0.000 OA
ATOM     23  O   UNL     1     108.209 128.694 135.799  0.00  0.00    +0.000 OA
ATOM     24  O   UNL     1     108.580 129.456 137.215  0.00  0.00    +0.000 OA
ATOM     25  O   UNL     1     109.394 127.938 134.934  0.00  0.00    +0.000 OA
ATOM     26  C   UNL     1     108.987 128.697 136.075  0.00  0.00    +0.000 C 
ATOM     27  C   UNL     1     109.172 129.078 136.782  0.00  0.00    +0.000 C 
ATOM     28  C   UNL     1     109.578 128.320 135.642  0.00  0.00    +0.000 C 
ATOM     29  C   UNL     1     109.950 129.081 137.057  0.00  0.00    +0.000 C 
ATOM     30  C   UNL     1     110.356 128.323 135.918  0.00  0.00    +0.000 C 
ATOM     31  C   UNL     1     110.136 129.462 137.766  0.00  0.00    +0.000 C 
ENDBRANCH  21  30
ENDBRANCH   4  21
TORSDOF 4
ENDMDL
MODEL 8
REMARK VINA RESULT:      -8.7      1.683      2.377
REMARK  Name = 44258413
REMARK  4 active torsions:
REMARK  status: ('A' for Active; 'I' for Inactive)
REMARK    1  A    between atoms: O_2  and  C_14
REMARK    2  A    between atoms: O_2  and  C_16
REMARK    3  A    between atoms: O_7  and  C_18
REMARK    4  A    between atoms: C_23  and  C_25
REMARK                            x       y       z     vdW  Elec       q    Type
REMARK                         _______ _______ _______ _____ _____    ______ ____
ROOT
ATOM      1  O   UNL     1     113.104 127.042 136.306  0.00  0.00    +0.000 OA
ATOM      2  O   UNL     1     112.353 129.443 134.901  0.00  0.00    +0.000 OA
ATOM      3  O   UNL     1     110.900 127.123 137.550  0.00  0.00    +0.000 OA
ATOM      4  C   UNL     1     111.279 128.300 136.419  0.00  0.00    +0.000 A 
ATOM      5  C   UNL     1     111.817 127.693 136.567  0.00  0.00    +0.000 A 
ATOM      6  C   UNL     1     111.457 128.884 135.863  0.00  0.00    +0.000 A 
ATOM      7  C   UNL     1     112.534 127.670 136.160  0.00  0.00    +0.000 A 
ATOM      8  C   UNL     1     112.174 128.860 135.456  0.00  0.00    +0.000 A 
ATOM      9  C   UNL     1     111.620 127.091 137.148  0.00  0.00    +0.000 A 
ATOM     10  C   UNL     1     112.713 128.253 135.605  0.00  0.00    +0.000 A 
ATOM     11  C   UNL     1     112.923 126.432 136.883  0.00  0.00    +0.000 A 
ATOM     12  C   UNL     1     112.176 126.457 137.307  0.00  0.00    +0.000 A 
ENDROOT
BRANCH  11  13
ATOM     13  C   UNL     1     113.465 125.826 137.029  0.00  0.00    +0.000 A 
ATOM     14  C   UNL     1     113.991 125.886 137.661  0.00  0.00    +0.000 A 
ATOM     15  C   UNL     1     113.479 125.161 136.542  0.00  0.00    +0.000 A 
ATOM     16  C   UNL     1     114.532 125.280 137.807  0.00  0.00    +0.000 A 
ATOM     17  C   UNL     1     114.020 124.555 136.687  0.00  0.00    +0.000 A 
ATOM     18  C   UNL     1     114.546 124.615 137.319  0.00  0.00    +0.000 A 
ENDBRANCH  11  13
BRANCH   6  19
ATOM     19  O   UNL     1     110.919 129.490 135.715  0.00  0.00    +0.000 OA
ATOM     20  C   UNL     1     110.749 129.711 134.939  0.00  0.00    +0.000 C 
ENDBRANCH   6  19
BRANCH   4  21
ATOM     21  O   UNL     1     110.561 128.323 136.825  0.00  0.00    +0.000 OA
BRANCH  21  30
ATOM     22  O   UNL     1     111.124 129.173 137.827  0.00  0.00    +0.000 OA
ATOM     23  O   UNL     1     108.850 129.734 138.628  0.00  0.00    +0.000 OA
ATOM     24  O   UNL     1     110.171 130.397 139.362  0.00  0.00    +0.000 OA
ATOM     25  O   UNL     1     109.046 128.697 137.359  0.00  0.00    +0.000 OA
ATOM     26  C   UNL     1     109.608 129.547 138.361  0.00  0.00    +0.000 C 
ATOM     27  C   UNL     1     110.268 129.879 138.728  0.00  0.00    +0.000 C 
ATOM     28  C   UNL     1     109.706 129.029 137.727  0.00  0.00    +0.000 C 
ATOM     29  C   UNL     1     111.026 129.692 138.461  0.00  0.00    +0.000 C 
ATOM     30  C   UNL     1     110.463 128.842 137.460  0.00  0.00    +0.000 C 
ATOM     31  C   UNL     1     111.686 130.023 138.829  0.00  0.00    +0.000 C 
ENDBRANCH  21  30
ENDBRANCH   4  21
TORSDOF 4
ENDMDL
