MODEL 1
REMARK VINA RESULT:     -12.7      0.000      0.000
REMARK  Name = 44258758
REMARK  10 active torsions:
REMARK  status: ('A' for Active; 'I' for Inactive)
REMARK    1  A    between atoms: O_1  and  C_24
REMARK    2  A    between atoms: O_1  and  C_29
REMARK    3  A    between atoms: O_4  and  C_28
REMARK    4  A    between atoms: O_4  and  C_37
REMARK    5  A    between atoms: O_13  and  C_40
REMARK    6  A    between atoms: O_13  and  C_47
REMARK    7  A    between atoms: O_16  and  C_46
REMARK    8  A    between atoms: O_16  and  C_52
REMARK    9  A    between atoms: C_32  and  C_37
REMARK   10  A    between atoms: C_49  and  C_57
REMARK                            x       y       z     vdW  Elec       q    Type
REMARK                         _______ _______ _______ _____ _____    ______ ____
ROOT
ATOM      1  O   UNL     1     112.400 125.257 137.125  0.00  0.00    +0.000 OA
ENDROOT
BRANCH   1   5
ATOM      2  O   UNL     1     113.649 126.284 138.590  0.00  0.00    +0.000 OA
ATOM      3  O   UNL     1     111.293 125.583 138.303  0.00  0.00    +0.000 OA
ATOM      4  O   UNL     1     110.940 126.140 139.588  0.00  0.00    +0.000 OA
ATOM      5  C   UNL     1     112.631 125.654 137.810  0.00  0.00    +0.000 A 
ATOM      6  C   UNL     1     113.417 125.887 137.905  0.00  0.00    +0.000 A 
ATOM      7  C   UNL     1     112.078 125.817 138.399  0.00  0.00    +0.000 A 
ATOM      8  C   UNL     1     112.310 126.213 139.085  0.00  0.00    +0.000 A 
ATOM      9  C   UNL     1     112.778 127.033 140.507  0.00  0.00    +0.000 A 
ATOM     10  C   UNL     1     113.095 126.447 139.180  0.00  0.00    +0.000 A 
ATOM     11  C   UNL     1     113.349 126.860 139.889  0.00  0.00    +0.000 A 
ATOM     12  C   UNL     1     111.724 126.377 139.691  0.00  0.00    +0.000 A 
ATOM     13  C   UNL     1     111.959 126.790 140.408  0.00  0.00    +0.000 A 
BRANCH   6  15
ATOM     14  O   UNL     1     115.632 125.239 135.547  0.00  0.00    +0.000 OA
ATOM     15  C   UNL     1     113.970 125.724 137.316  0.00  0.00    +0.000 A 
ATOM     16  C   UNL     1     114.203 126.320 136.794  0.00  0.00    +0.000 A 
ATOM     17  C   UNL     1     114.292 124.968 137.249  0.00  0.00    +0.000 A 
ATOM     18  C   UNL     1     114.757 126.157 136.204  0.00  0.00    +0.000 A 
ATOM     19  C   UNL     1     114.846 124.806 136.659  0.00  0.00    +0.000 A 
ATOM     20  C   UNL     1     115.078 125.400 136.137  0.00  0.00    +0.000 A 
ENDBRANCH   6  15
BRANCH   9  21
ATOM     21  O   UNL     1     113.013 127.430 141.192  0.00  0.00    +0.000 OA
BRANCH  21  30
ATOM     22  O   UNL     1     113.358 128.696 140.626  0.00  0.00    +0.000 OA
ATOM     23  O   UNL     1     112.195 129.844 142.484  0.00  0.00    +0.000 OA
ATOM     24  O   UNL     1     112.929 130.727 141.298  0.00  0.00    +0.000 OA
ATOM     25  O   UNL     1     112.237 128.195 142.430  0.00  0.00    +0.000 OA
ATOM     26  C   UNL     1     112.583 129.461 141.865  0.00  0.00    +0.000 C 
ATOM     27  C   UNL     1     112.950 129.902 141.271  0.00  0.00    +0.000 C 
ATOM     28  C   UNL     1     112.604 128.637 141.838  0.00  0.00    +0.000 C 
ATOM     29  C   UNL     1     113.338 129.520 140.652  0.00  0.00    +0.000 C 
ATOM     30  C   UNL     1     112.992 128.254 141.218  0.00  0.00    +0.000 C 
ATOM     31  C   UNL     1     113.704 129.961 140.059  0.00  0.00    +0.000 C 
ENDBRANCH  21  30
ENDBRANCH   9  21
ENDBRANCH   1   5
BRANCH   1  40
ATOM     32  O   UNL     1     111.659 126.387 136.657  0.00  0.00    +0.000 OA
ATOM     33  O   UNL     1     110.043 126.533 135.199  0.00  0.00    +0.000 OA
ATOM     34  O   UNL     1     110.344 124.911 135.170  0.00  0.00    +0.000 OA
ATOM     35  O   UNL     1     111.522 124.273 136.133  0.00  0.00    +0.000 OA
ATOM     36  C   UNL     1     111.070 126.706 136.176  0.00  0.00    +0.000 C 
ATOM     37  C   UNL     1     110.632 126.214 135.680  0.00  0.00    +0.000 C 
ATOM     38  C   UNL     1     110.782 125.403 135.665  0.00  0.00    +0.000 C 
ATOM     39  C   UNL     1     111.371 125.084 136.147  0.00  0.00    +0.000 C 
ATOM     40  C   UNL     1     111.810 125.576 136.643  0.00  0.00    +0.000 C 
BRANCH  36  41
ATOM     41  C   UNL     1     110.920 127.516 136.191  0.00  0.00    +0.000 C 
BRANCH  41  42
ATOM     42  O   UNL     1     111.547 128.052 136.182  0.00  0.00    +0.000 OA
BRANCH  42  50
ATOM     43  O   UNL     1     110.656 129.167 136.097  0.00  0.00    +0.000 OA
ATOM     44  O   UNL     1     112.454 130.665 136.903  0.00  0.00    +0.000 OA
ATOM     45  O   UNL     1     112.745 129.051 136.719  0.00  0.00    +0.000 OA
ATOM     46  C   UNL     1     111.110 130.473 136.458  0.00  0.00    +0.000 C 
ATOM     47  C   UNL     1     111.855 130.165 136.634  0.00  0.00    +0.000 C 
ATOM     48  C   UNL     1     110.511 129.974 136.189  0.00  0.00    +0.000 C 
ATOM     49  C   UNL     1     112.000 129.359 136.543  0.00  0.00    +0.000 C 
ATOM     50  C   UNL     1     111.401 128.860 136.274  0.00  0.00    +0.000 C 
ATOM     51  C   UNL     1     109.766 130.281 136.012  0.00  0.00    +0.000 C 
BRANCH  46  52
ATOM     52  O   UNL     1     110.964 131.280 136.549  0.00  0.00    +0.000 OA
BRANCH  52  57
ATOM     53  O   UNL     1     110.539 131.053 137.895  0.00  0.00    +0.000 OA
ATOM     54  O   UNL     1     110.774 132.905 136.765  0.00  0.00    +0.000 OA
ATOM     55  O   UNL     1     110.255 133.489 138.217  0.00  0.00    +0.000 OA
ATOM     56  O   UNL     1     109.924 132.449 139.455  0.00  0.00    +0.000 OA
ATOM     57  C   UNL     1     110.704 131.573 137.276  0.00  0.00    +0.000 C 
ATOM     58  C   UNL     1     110.609 132.384 137.383  0.00  0.00    +0.000 C 
ATOM     59  C   UNL     1     110.349 132.678 138.110  0.00  0.00    +0.000 C 
ATOM     60  C   UNL     1     110.184 132.157 138.728  0.00  0.00    +0.000 C 
ATOM     61  C   UNL     1     110.279 131.344 138.621  0.00  0.00    +0.000 C 
ATOM     62  C   UNL     1     110.114 130.824 139.240  0.00  0.00    +0.000 C 
ENDBRANCH  52  57
ENDBRANCH  46  52
ENDBRANCH  42  50
ENDBRANCH  41  42
ENDBRANCH  36  41
ENDBRANCH   1  40
TORSDOF 10
ENDMDL
MODEL 2
REMARK VINA RESULT:     -11.9      1.524      5.634
REMARK  Name = 44258758
REMARK  10 active torsions:
REMARK  status: ('A' for Active; 'I' for Inactive)
REMARK    1  A    between atoms: O_1  and  C_24
REMARK    2  A    between atoms: O_1  and  C_29
REMARK    3  A    between atoms: O_4  and  C_28
REMARK    4  A    between atoms: O_4  and  C_37
REMARK    5  A    between atoms: O_13  and  C_40
REMARK    6  A    between atoms: O_13  and  C_47
REMARK    7  A    between atoms: O_16  and  C_46
REMARK    8  A    between atoms: O_16  and  C_52
REMARK    9  A    between atoms: C_32  and  C_37
REMARK   10  A    between atoms: C_49  and  C_57
REMARK                            x       y       z     vdW  Elec       q    Type
REMARK                         _______ _______ _______ _____ _____    ______ ____
ROOT
ATOM      1  O   UNL     1     109.116 131.256 137.486  0.00  0.00    +0.000 OA
ENDROOT
BRANCH   1   5
ATOM      2  O   UNL     1     110.320 131.746 139.239  0.00  0.00    +0.000 OA
ATOM      3  O   UNL     1     108.403 130.304 138.629  0.00  0.00    +0.000 OA
ATOM      4  O   UNL     1     108.306 129.810 139.982  0.00  0.00    +0.000 OA
ATOM      5  C   UNL     1     109.398 131.260 138.261  0.00  0.00    +0.000 A 
ATOM      6  C   UNL     1     110.037 131.741 138.464  0.00  0.00    +0.000 A 
ATOM      7  C   UNL     1     109.042 130.784 138.832  0.00  0.00    +0.000 A 
ATOM      8  C   UNL     1     109.324 130.788 139.608  0.00  0.00    +0.000 A 
ATOM      9  C   UNL     1     109.900 130.789 141.215  0.00  0.00    +0.000 A 
ATOM     10  C   UNL     1     109.963 131.269 139.811  0.00  0.00    +0.000 A 
ATOM     11  C   UNL     1     110.266 131.283 140.615  0.00  0.00    +0.000 A 
ATOM     12  C   UNL     1     108.944 130.288 140.194  0.00  0.00    +0.000 A 
ATOM     13  C   UNL     1     109.234 130.288 141.003  0.00  0.00    +0.000 A 
BRANCH   6  15
ATOM     14  O   UNL     1     111.463 133.648 136.180  0.00  0.00    +0.000 OA
ATOM     15  C   UNL     1     110.394 132.217 137.893  0.00  0.00    +0.000 A 
ATOM     16  C   UNL     1     110.025 132.915 137.650  0.00  0.00    +0.000 A 
ATOM     17  C   UNL     1     111.118 131.997 137.566  0.00  0.00    +0.000 A 
ATOM     18  C   UNL     1     110.382 133.391 137.079  0.00  0.00    +0.000 A 
ATOM     19  C   UNL     1     111.474 132.474 136.994  0.00  0.00    +0.000 A 
ATOM     20  C   UNL     1     111.107 133.171 136.751  0.00  0.00    +0.000 A 
ENDBRANCH   6  15
BRANCH   9  21
ATOM     21  O   UNL     1     110.184 130.796 141.990  0.00  0.00    +0.000 OA
BRANCH  21  30
ATOM     22  O   UNL     1     111.330 129.962 141.806  0.00  0.00    +0.000 OA
ATOM     23  O   UNL     1     110.838 128.815 143.943  0.00  0.00    +0.000 OA
ATOM     24  O   UNL     1     112.148 128.364 143.046  0.00  0.00    +0.000 OA
ATOM     25  O   UNL     1     109.856 130.031 143.415  0.00  0.00    +0.000 OA
ATOM     26  C   UNL     1     111.002 129.197 143.231  0.00  0.00    +0.000 C 
ATOM     27  C   UNL     1     111.657 128.972 142.782  0.00  0.00    +0.000 C 
ATOM     28  C   UNL     1     110.511 129.805 142.967  0.00  0.00    +0.000 C 
ATOM     29  C   UNL     1     111.821 129.355 142.070  0.00  0.00    +0.000 C 
ATOM     30  C   UNL     1     110.675 130.188 142.254  0.00  0.00    +0.000 C 
ATOM     31  C   UNL     1     112.476 129.129 141.622  0.00  0.00    +0.000 C 
ENDBRANCH  21  30
ENDBRANCH   9  21
ENDBRANCH   1   5
BRANCH   1  40
ATOM     32  O   UNL     1     109.670 129.976 137.174  0.00  0.00    +0.000 OA
ATOM     33  O   UNL     1     109.000 128.428 135.790  0.00  0.00    +0.000 OA
ATOM     34  O   UNL     1     107.833 129.573 135.566  0.00  0.00    +0.000 OA
ATOM     35  O   UNL     1     107.891 130.987 136.414  0.00  0.00    +0.000 OA
ATOM     36  C   UNL     1     109.641 129.269 136.750  0.00  0.00    +0.000 C 
ATOM     37  C   UNL     1     109.029 129.135 136.214  0.00  0.00    +0.000 C 
ATOM     38  C   UNL     1     108.445 129.707 136.101  0.00  0.00    +0.000 C 
ATOM     39  C   UNL     1     108.474 130.414 136.526  0.00  0.00    +0.000 C 
ATOM     40  C   UNL     1     109.087 130.549 137.062  0.00  0.00    +0.000 C 
BRANCH  36  41
ATOM     41  C   UNL     1     110.224 128.697 136.862  0.00  0.00    +0.000 C 
BRANCH  41  42
ATOM     42  O   UNL     1     111.018 128.917 136.883  0.00  0.00    +0.000 OA
BRANCH  42  50
ATOM     43  O   UNL     1     111.459 127.927 137.815  0.00  0.00    +0.000 OA
ATOM     44  O   UNL     1     113.562 127.659 136.538  0.00  0.00    +0.000 OA
ATOM     45  O   UNL     1     112.420 128.738 136.031  0.00  0.00    +0.000 OA
ATOM     46  C   UNL     1     112.731 127.298 137.642  0.00  0.00    +0.000 C 
ATOM     47  C   UNL     1     112.861 127.749 136.963  0.00  0.00    +0.000 C 
ATOM     48  C   UNL     1     112.030 127.387 138.068  0.00  0.00    +0.000 C 
ATOM     49  C   UNL     1     112.291 128.288 136.710  0.00  0.00    +0.000 C 
ATOM     50  C   UNL     1     111.590 128.377 137.136  0.00  0.00    +0.000 C 
ATOM     51  C   UNL     1     111.899 126.937 138.747  0.00  0.00    +0.000 C 
BRANCH  46  52
ATOM     52  O   UNL     1     113.301 126.759 137.896  0.00  0.00    +0.000 OA
BRANCH  52  57
ATOM     53  O   UNL     1     112.679 125.721 137.136  0.00  0.00    +0.000 OA
ATOM     54  O   UNL     1     114.604 125.782 138.162  0.00  0.00    +0.000 OA
ATOM     55  O   UNL     1     114.633 124.256 137.535  0.00  0.00    +0.000 OA
ATOM     56  O   UNL     1     113.358 123.707 136.642  0.00  0.00    +0.000 OA
ATOM     57  C   UNL     1     113.316 125.996 137.582  0.00  0.00    +0.000 C 
ATOM     58  C   UNL     1     113.967 125.507 137.715  0.00  0.00    +0.000 C 
ATOM     59  C   UNL     1     113.982 124.744 137.402  0.00  0.00    +0.000 C 
ATOM     60  C   UNL     1     113.345 124.469 136.956  0.00  0.00    +0.000 C 
ATOM     61  C   UNL     1     112.693 124.958 136.822  0.00  0.00    +0.000 C 
ATOM     62  C   UNL     1     112.056 124.684 136.376  0.00  0.00    +0.000 C 
ENDBRANCH  52  57
ENDBRANCH  46  52
ENDBRANCH  42  50
ENDBRANCH  41  42
ENDBRANCH  36  41
ENDBRANCH   1  40
TORSDOF 10
ENDMDL
MODEL 3
REMARK VINA RESULT:     -11.8      1.361      4.233
REMARK  Name = 44258758
REMARK  10 active torsions:
REMARK  status: ('A' for Active; 'I' for Inactive)
REMARK    1  A    between atoms: O_1  and  C_24
REMARK    2  A    between atoms: O_1  and  C_29
REMARK    3  A    between atoms: O_4  and  C_28
REMARK    4  A    between atoms: O_4  and  C_37
REMARK    5  A    between atoms: O_13  and  C_40
REMARK    6  A    between atoms: O_13  and  C_47
REMARK    7  A    between atoms: O_16  and  C_46
REMARK    8  A    between atoms: O_16  and  C_52
REMARK    9  A    between atoms: C_32  and  C_37
REMARK   10  A    between atoms: C_49  and  C_57
REMARK                            x       y       z     vdW  Elec       q    Type
REMARK                         _______ _______ _______ _____ _____    ______ ____
ROOT
ATOM      1  O   UNL     1     111.468 127.640 135.589  0.00  0.00    +0.000 OA
ENDROOT
BRANCH   1   5
ATOM      2  O   UNL     1     111.519 129.573 136.601  0.00  0.00    +0.000 OA
ATOM      3  O   UNL     1     109.916 127.746 136.136  0.00  0.00    +0.000 OA
ATOM      4  O   UNL     1     108.869 128.447 136.840  0.00  0.00    +0.000 OA
ATOM      5  C   UNL     1     111.226 128.302 136.017  0.00  0.00    +0.000 A 
ATOM      6  C   UNL     1     111.761 128.911 136.172  0.00  0.00    +0.000 A 
ATOM      7  C   UNL     1     110.450 128.355 136.291  0.00  0.00    +0.000 A 
ATOM      8  C   UNL     1     110.208 129.017 136.720  0.00  0.00    +0.000 A 
ATOM      9  C   UNL     1     109.696 130.382 137.608  0.00  0.00    +0.000 A 
ATOM     10  C   UNL     1     110.742 129.626 136.874  0.00  0.00    +0.000 A 
ATOM     11  C   UNL     1     110.503 130.320 137.319  0.00  0.00    +0.000 A 
ATOM     12  C   UNL     1     109.397 129.060 136.999  0.00  0.00    +0.000 A 
ATOM     13  C   UNL     1     109.138 129.748 137.446  0.00  0.00    +0.000 A 
BRANCH   6  15
ATOM     14  O   UNL     1     114.868 128.700 135.081  0.00  0.00    +0.000 OA
ATOM     15  C   UNL     1     112.537 128.858 135.899  0.00  0.00    +0.000 A 
ATOM     16  C   UNL     1     113.148 128.681 136.425  0.00  0.00    +0.000 A 
ATOM     17  C   UNL     1     112.703 128.982 135.101  0.00  0.00    +0.000 A 
ATOM     18  C   UNL     1     113.925 128.628 136.152  0.00  0.00    +0.000 A 
ATOM     19  C   UNL     1     113.481 128.930 134.828  0.00  0.00    +0.000 A 
ATOM     20  C   UNL     1     114.091 128.753 135.354  0.00  0.00    +0.000 A 
ENDBRANCH   6  15
BRANCH   9  21
ATOM     21  O   UNL     1     109.456 131.046 138.036  0.00  0.00    +0.000 OA
BRANCH  21  30
ATOM     22  O   UNL     1     109.040 130.467 139.275  0.00  0.00    +0.000 OA
ATOM     23  O   UNL     1     110.402 132.127 140.507  0.00  0.00    +0.000 OA
ATOM     24  O   UNL     1     109.532 130.995 141.334  0.00  0.00    +0.000 OA
ATOM     25  O   UNL     1     110.364 132.152 138.857  0.00  0.00    +0.000 OA
ATOM     26  C   UNL     1     109.948 131.574 140.096  0.00  0.00    +0.000 C 
ATOM     27  C   UNL     1     109.513 131.007 140.510  0.00  0.00    +0.000 C 
ATOM     28  C   UNL     1     109.929 131.586 139.271  0.00  0.00    +0.000 C 
ATOM     29  C   UNL     1     109.059 130.454 140.099  0.00  0.00    +0.000 C 
ATOM     30  C   UNL     1     109.475 131.033 138.861  0.00  0.00    +0.000 C 
ATOM     31  C   UNL     1     108.624 129.889 140.513  0.00  0.00    +0.000 C 
ENDBRANCH  21  30
ENDBRANCH   9  21
ENDBRANCH   1   5
BRANCH   1  40
ATOM     32  O   UNL     1     111.521 126.771 136.723  0.00  0.00    +0.000 OA
ATOM     33  O   UNL     1     111.161 124.626 136.897  0.00  0.00    +0.000 OA
ATOM     34  O   UNL     1     110.903 124.855 135.284  0.00  0.00    +0.000 OA
ATOM     35  O   UNL     1     111.056 126.362 134.630  0.00  0.00    +0.000 OA
ATOM     36  C   UNL     1     111.444 126.018 137.050  0.00  0.00    +0.000 C 
ATOM     37  C   UNL     1     111.238 125.379 136.570  0.00  0.00    +0.000 C 
ATOM     38  C   UNL     1     111.109 125.493 135.763  0.00  0.00    +0.000 C 
ATOM     39  C   UNL     1     111.185 126.247 135.436  0.00  0.00    +0.000 C 
ATOM     40  C   UNL     1     111.392 126.886 135.916  0.00  0.00    +0.000 C 
BRANCH  36  41
ATOM     41  C   UNL     1     111.573 125.903 137.856  0.00  0.00    +0.000 C 
BRANCH  41  42
ATOM     42  O   UNL     1     112.303 126.097 138.188  0.00  0.00    +0.000 OA
BRANCH  42  50
ATOM     43  O   UNL     1     111.656 126.801 139.250  0.00  0.00    +0.000 OA
ATOM     44  O   UNL     1     113.791 126.880 140.499  0.00  0.00    +0.000 OA
ATOM     45  O   UNL     1     113.726 126.150 139.020  0.00  0.00    +0.000 OA
ATOM     46  C   UNL     1     112.400 127.193 140.406  0.00  0.00    +0.000 C 
ATOM     47  C   UNL     1     113.079 126.854 140.083  0.00  0.00    +0.000 C 
ATOM     48  C   UNL     1     111.688 127.167 139.990  0.00  0.00    +0.000 C 
ATOM     49  C   UNL     1     113.047 126.489 139.344  0.00  0.00    +0.000 C 
ATOM     50  C   UNL     1     112.335 126.463 138.928  0.00  0.00    +0.000 C 
ATOM     51  C   UNL     1     111.009 127.505 140.312  0.00  0.00    +0.000 C 
BRANCH  46  52
ATOM     52  O   UNL     1     112.433 127.558 141.145  0.00  0.00    +0.000 OA
BRANCH  52  57
ATOM     53  O   UNL     1     112.894 128.770 140.547  0.00  0.00    +0.000 OA
ATOM     54  O   UNL     1     112.165 128.359 142.562  0.00  0.00    +0.000 OA
ATOM     55  O   UNL     1     112.493 129.972 142.672  0.00  0.00    +0.000 OA
ATOM     56  O   UNL     1     113.088 130.784 141.365  0.00  0.00    +0.000 OA
ATOM     57  C   UNL     1     112.596 128.364 141.200  0.00  0.00    +0.000 C 
ATOM     58  C   UNL     1     112.463 128.765 141.908  0.00  0.00    +0.000 C 
ATOM     59  C   UNL     1     112.626 129.572 141.964  0.00  0.00    +0.000 C 
ATOM     60  C   UNL     1     112.924 129.978 141.310  0.00  0.00    +0.000 C 
ATOM     61  C   UNL     1     113.058 129.577 140.601  0.00  0.00    +0.000 C 
ATOM     62  C   UNL     1     113.355 129.983 139.948  0.00  0.00    +0.000 C 
ENDBRANCH  52  57
ENDBRANCH  46  52
ENDBRANCH  42  50
ENDBRANCH  41  42
ENDBRANCH  36  41
ENDBRANCH   1  40
TORSDOF 10
ENDMDL
MODEL 4
REMARK VINA RESULT:     -11.8      1.288      2.601
REMARK  Name = 44258758
REMARK  10 active torsions:
REMARK  status: ('A' for Active; 'I' for Inactive)
REMARK    1  A    between atoms: O_1  and  C_24
REMARK    2  A    between atoms: O_1  and  C_29
REMARK    3  A    between atoms: O_4  and  C_28
REMARK    4  A    between atoms: O_4  and  C_37
REMARK    5  A    between atoms: O_13  and  C_40
REMARK    6  A    between atoms: O_13  and  C_47
REMARK    7  A    between atoms: O_16  and  C_46
REMARK    8  A    between atoms: O_16  and  C_52
REMARK    9  A    between atoms: C_32  and  C_37
REMARK   10  A    between atoms: C_49  and  C_57
REMARK                            x       y       z     vdW  Elec       q    Type
REMARK                         _______ _______ _______ _____ _____    ______ ____
ROOT
ATOM      1  O   UNL     1     113.046 126.024 136.978  0.00  0.00    +0.000 OA
ENDROOT
BRANCH   1   5
ATOM      2  O   UNL     1     111.529 126.174 138.538  0.00  0.00    +0.000 OA
ATOM      3  O   UNL     1     113.983 126.372 138.289  0.00  0.00    +0.000 OA
ATOM      4  O   UNL     1     114.132 126.659 139.696  0.00  0.00    +0.000 OA
ATOM      5  C   UNL     1     112.697 126.132 137.716  0.00  0.00    +0.000 A 
ATOM      6  C   UNL     1     111.879 126.066 137.799  0.00  0.00    +0.000 A 
ATOM      7  C   UNL     1     113.165 126.306 138.372  0.00  0.00    +0.000 A 
ATOM      8  C   UNL     1     112.816 126.414 139.112  0.00  0.00    +0.000 A 
ATOM      9  C   UNL     1     112.104 126.640 140.648  0.00  0.00    +0.000 A 
ATOM     10  C   UNL     1     111.998 126.348 139.195  0.00  0.00    +0.000 A 
ATOM     11  C   UNL     1     111.622 126.458 139.960  0.00  0.00    +0.000 A 
ATOM     12  C   UNL     1     113.315 126.595 139.788  0.00  0.00    +0.000 A 
ATOM     13  C   UNL     1     112.956 126.709 140.561  0.00  0.00    +0.000 A 
BRANCH   6  15
ATOM     14  O   UNL     1     110.002 125.372 135.175  0.00  0.00    +0.000 OA
ATOM     15  C   UNL     1     111.410 125.892 137.144  0.00  0.00    +0.000 A 
ATOM     16  C   UNL     1     110.913 126.470 136.827  0.00  0.00    +0.000 A 
ATOM     17  C   UNL     1     111.437 125.140 136.804  0.00  0.00    +0.000 A 
ATOM     18  C   UNL     1     110.445 126.296 136.171  0.00  0.00    +0.000 A 
ATOM     19  C   UNL     1     110.968 124.967 136.148  0.00  0.00    +0.000 A 
ATOM     20  C   UNL     1     110.472 125.545 135.832  0.00  0.00    +0.000 A 
ENDBRANCH   6  15
BRANCH   9  21
ATOM     21  O   UNL     1     111.751 126.747 141.386  0.00  0.00    +0.000 OA
BRANCH  21  30
ATOM     22  O   UNL     1     112.106 128.109 141.635  0.00  0.00    +0.000 OA
ATOM     23  O   UNL     1     109.798 128.572 142.398  0.00  0.00    +0.000 OA
ATOM     24  O   UNL     1     110.924 129.779 142.393  0.00  0.00    +0.000 OA
ATOM     25  O   UNL     1     110.212 127.056 141.894  0.00  0.00    +0.000 OA
ATOM     26  C   UNL     1     110.567 128.417 142.144  0.00  0.00    +0.000 C 
ATOM     27  C   UNL     1     111.131 129.021 142.141  0.00  0.00    +0.000 C 
ATOM     28  C   UNL     1     110.775 127.659 141.892  0.00  0.00    +0.000 C 
ATOM     29  C   UNL     1     111.900 128.866 141.887  0.00  0.00    +0.000 C 
ATOM     30  C   UNL     1     111.544 127.505 141.638  0.00  0.00    +0.000 C 
ATOM     31  C   UNL     1     112.463 129.470 141.884  0.00  0.00    +0.000 C 
ENDBRANCH  21  30
ENDBRANCH   9  21
ENDBRANCH   1   5
BRANCH   1  40
ATOM     32  O   UNL     1     113.192 127.416 136.689  0.00  0.00    +0.000 OA
ATOM     33  O   UNL     1     114.727 128.491 135.571  0.00  0.00    +0.000 OA
ATOM     34  O   UNL     1     115.277 126.941 135.445  0.00  0.00    +0.000 OA
ATOM     35  O   UNL     1     114.437 125.707 136.148  0.00  0.00    +0.000 OA
ATOM     36  C   UNL     1     113.612 128.033 136.337  0.00  0.00    +0.000 C 
ATOM     37  C   UNL     1     114.307 127.874 135.923  0.00  0.00    +0.000 C 
ATOM     38  C   UNL     1     114.583 127.099 135.859  0.00  0.00    +0.000 C 
ATOM     39  C   UNL     1     114.163 126.482 136.211  0.00  0.00    +0.000 C 
ATOM     40  C   UNL     1     113.467 126.641 136.626  0.00  0.00    +0.000 C 
BRANCH  36  41
ATOM     41  C   UNL     1     113.336 128.807 136.400  0.00  0.00    +0.000 C 
BRANCH  41  42
ATOM     42  O   UNL     1     113.410 129.214 137.114  0.00  0.00    +0.000 OA
BRANCH  42  50
ATOM     43  O   UNL     1     112.179 129.894 136.861  0.00  0.00    +0.000 OA
ATOM     44  O   UNL     1     112.248 130.865 139.137  0.00  0.00    +0.000 OA
ATOM     45  O   UNL     1     113.456 129.861 138.631  0.00  0.00    +0.000 OA
ATOM     46  C   UNL     1     111.598 130.720 137.873  0.00  0.00    +0.000 C 
ATOM     47  C   UNL     1     112.225 130.541 138.378  0.00  0.00    +0.000 C 
ATOM     48  C   UNL     1     111.575 130.397 137.114  0.00  0.00    +0.000 C 
ATOM     49  C   UNL     1     112.829 130.040 138.126  0.00  0.00    +0.000 C 
ATOM     50  C   UNL     1     112.806 129.716 137.367  0.00  0.00    +0.000 C 
ATOM     51  C   UNL     1     110.948 130.575 136.608  0.00  0.00    +0.000 C 
BRANCH  46  52
ATOM     52  O   UNL     1     110.994 131.222 138.125  0.00  0.00    +0.000 OA
BRANCH  52  57
ATOM     53  O   UNL     1     110.152 130.122 138.476  0.00  0.00    +0.000 OA
ATOM     54  O   UNL     1     110.122 132.206 139.122  0.00  0.00    +0.000 OA
ATOM     55  O   UNL     1     108.844 131.597 139.971  0.00  0.00    +0.000 OA
ATOM     56  O   UNL     1     108.438 130.005 139.822  0.00  0.00    +0.000 OA
ATOM     57  C   UNL     1     110.355 130.918 138.550  0.00  0.00    +0.000 C 
ATOM     58  C   UNL     1     109.919 131.410 139.048  0.00  0.00    +0.000 C 
ATOM     59  C   UNL     1     109.280 131.106 139.473  0.00  0.00    +0.000 C 
ATOM     60  C   UNL     1     109.077 130.310 139.398  0.00  0.00    +0.000 C 
ATOM     61  C   UNL     1     109.513 129.817 138.900  0.00  0.00    +0.000 C 
ATOM     62  C   UNL     1     109.310 129.021 138.825  0.00  0.00    +0.000 C 
ENDBRANCH  52  57
ENDBRANCH  46  52
ENDBRANCH  42  50
ENDBRANCH  41  42
ENDBRANCH  36  41
ENDBRANCH   1  40
TORSDOF 10
ENDMDL
MODEL 5
REMARK VINA RESULT:     -11.7      1.778      4.899
REMARK  Name = 44258758
REMARK  10 active torsions:
REMARK  status: ('A' for Active; 'I' for Inactive)
REMARK    1  A    between atoms: O_1  and  C_24
REMARK    2  A    between atoms: O_1  and  C_29
REMARK    3  A    between atoms: O_4  and  C_28
REMARK    4  A    between atoms: O_4  and  C_37
REMARK    5  A    between atoms: O_13  and  C_40
REMARK    6  A    between atoms: O_13  and  C_47
REMARK    7  A    between atoms: O_16  and  C_46
REMARK    8  A    between atoms: O_16  and  C_52
REMARK    9  A    between atoms: C_32  and  C_37
REMARK   10  A    between atoms: C_49  and  C_57
REMARK                            x       y       z     vdW  Elec       q    Type
REMARK                         _______ _______ _______ _____ _____    ______ ____
ROOT
ATOM      1  O   UNL     1     113.036 127.876 136.002  0.00  0.00    +0.000 OA
ENDROOT
BRANCH   1   5
ATOM      2  O   UNL     1     111.971 129.709 135.482  0.00  0.00    +0.000 OA
ATOM      3  O   UNL     1     111.475 127.413 136.262  0.00  0.00    +0.000 OA
ATOM      4  O   UNL     1     110.059 127.691 136.271  0.00  0.00    +0.000 OA
ATOM      5  C   UNL     1     112.421 128.410 135.872  0.00  0.00    +0.000 A 
ATOM      6  C   UNL     1     112.586 129.175 135.612  0.00  0.00    +0.000 A 
ATOM      7  C   UNL     1     111.641 128.178 136.002  0.00  0.00    +0.000 A 
ATOM      8  C   UNL     1     111.024 128.712 135.872  0.00  0.00    +0.000 A 
ATOM      9  C   UNL     1     109.742 129.807 135.607  0.00  0.00    +0.000 A 
ATOM     10  C   UNL     1     111.190 129.477 135.612  0.00  0.00    +0.000 A 
ATOM     11  C   UNL     1     110.558 130.042 135.473  0.00  0.00    +0.000 A 
ATOM     12  C   UNL     1     110.216 128.458 136.011  0.00  0.00    +0.000 A 
ATOM     13  C   UNL     1     109.569 129.010 135.878  0.00  0.00    +0.000 A 
BRANCH   6  15
ATOM     14  O   UNL     1     115.710 130.103 135.089  0.00  0.00    +0.000 OA
ATOM     15  C   UNL     1     113.367 129.407 135.482  0.00  0.00    +0.000 A 
ATOM     16  C   UNL     1     113.775 129.129 134.820  0.00  0.00    +0.000 A 
ATOM     17  C   UNL     1     113.741 129.917 136.013  0.00  0.00    +0.000 A 
ATOM     18  C   UNL     1     114.556 129.362 134.690  0.00  0.00    +0.000 A 
ATOM     19  C   UNL     1     114.522 130.148 135.881  0.00  0.00    +0.000 A 
ATOM     20  C   UNL     1     114.929 129.871 135.221  0.00  0.00    +0.000 A 
ENDBRANCH   6  15
BRANCH   9  21
ATOM     21  O   UNL     1     109.128 130.343 135.476  0.00  0.00    +0.000 OA
BRANCH  21  30
ATOM     22  O   UNL     1     109.489 131.240 136.528  0.00  0.00    +0.000 OA
ATOM     23  O   UNL     1     107.097 131.729 136.932  0.00  0.00    +0.000 OA
ATOM     24  O   UNL     1     108.256 132.463 137.850  0.00  0.00    +0.000 OA
ATOM     25  O   UNL     1     107.533 130.669 135.746  0.00  0.00    +0.000 OA
ATOM     26  C   UNL     1     107.894 131.566 136.798  0.00  0.00    +0.000 C 
ATOM     27  C   UNL     1     108.474 131.933 137.256  0.00  0.00    +0.000 C 
ATOM     28  C   UNL     1     108.112 131.036 136.204  0.00  0.00    +0.000 C 
ATOM     29  C   UNL     1     109.272 131.770 137.121  0.00  0.00    +0.000 C 
ATOM     30  C   UNL     1     108.910 130.873 136.070  0.00  0.00    +0.000 C 
ATOM     31  C   UNL     1     109.851 132.137 137.580  0.00  0.00    +0.000 C 
ENDBRANCH  21  30
ENDBRANCH   9  21
ENDBRANCH   1   5
BRANCH   1  40
ATOM     32  O   UNL     1     112.942 127.940 137.426  0.00  0.00    +0.000 OA
ATOM     33  O   UNL     1     113.387 126.450 138.957  0.00  0.00    +0.000 OA
ATOM     34  O   UNL     1     113.751 125.607 137.586  0.00  0.00    +0.000 OA
ATOM     35  O   UNL     1     113.576 126.321 136.108  0.00  0.00    +0.000 OA
ATOM     36  C   UNL     1     113.030 127.584 138.165  0.00  0.00    +0.000 C 
ATOM     37  C   UNL     1     113.299 126.807 138.218  0.00  0.00    +0.000 C 
ATOM     38  C   UNL     1     113.482 126.385 137.533  0.00  0.00    +0.000 C 
ATOM     39  C   UNL     1     113.394 126.741 136.794  0.00  0.00    +0.000 C 
ATOM     40  C   UNL     1     113.124 127.520 136.741  0.00  0.00    +0.000 C 
BRANCH  36  41
ATOM     41  C   UNL     1     112.848 128.005 138.850  0.00  0.00    +0.000 C 
BRANCH  41  42
ATOM     42  O   UNL     1     113.214 128.729 138.998  0.00  0.00    +0.000 OA
BRANCH  42  50
ATOM     43  O   UNL     1     112.044 129.302 139.586  0.00  0.00    +0.000 OA
ATOM     44  O   UNL     1     113.462 130.828 140.923  0.00  0.00    +0.000 OA
ATOM     45  O   UNL     1     114.159 129.746 139.890  0.00  0.00    +0.000 OA
ATOM     46  C   UNL     1     112.168 130.351 140.548  0.00  0.00    +0.000 C 
ATOM     47  C   UNL     1     112.989 130.319 140.477  0.00  0.00    +0.000 C 
ATOM     48  C   UNL     1     111.695 129.843 140.103  0.00  0.00    +0.000 C 
ATOM     49  C   UNL     1     113.338 129.779 139.961  0.00  0.00    +0.000 C 
ATOM     50  C   UNL     1     112.865 129.270 139.515  0.00  0.00    +0.000 C 
ATOM     51  C   UNL     1     110.874 129.874 140.173  0.00  0.00    +0.000 C 
BRANCH  46  52
ATOM     52  O   UNL     1     111.819 130.892 141.064  0.00  0.00    +0.000 OA
BRANCH  52  57
ATOM     53  O   UNL     1     111.869 129.926 142.117  0.00  0.00    +0.000 OA
ATOM     54  O   UNL     1     111.272 132.025 142.131  0.00  0.00    +0.000 OA
ATOM     55  O   UNL     1     111.049 131.626 143.717  0.00  0.00    +0.000 OA
ATOM     56  O   UNL     1     111.373 130.094 144.235  0.00  0.00    +0.000 OA
ATOM     57  C   UNL     1     111.707 130.693 141.857  0.00  0.00    +0.000 C 
ATOM     58  C   UNL     1     111.434 131.259 142.391  0.00  0.00    +0.000 C 
ATOM     59  C   UNL     1     111.322 131.060 143.184  0.00  0.00    +0.000 C 
ATOM     60  C   UNL     1     111.484 130.294 143.443  0.00  0.00    +0.000 C 
ATOM     61  C   UNL     1     111.758 129.726 142.909  0.00  0.00    +0.000 C 
ATOM     62  C   UNL     1     111.920 128.960 143.168  0.00  0.00    +0.000 C 
ENDBRANCH  52  57
ENDBRANCH  46  52
ENDBRANCH  42  50
ENDBRANCH  41  42
ENDBRANCH  36  41
ENDBRANCH   1  40
TORSDOF 10
ENDMDL
MODEL 6
REMARK VINA RESULT:     -11.6      2.147      6.089
REMARK  Name = 44258758
REMARK  10 active torsions:
REMARK  status: ('A' for Active; 'I' for Inactive)
REMARK    1  A    between atoms: O_1  and  C_24
REMARK    2  A    between atoms: O_1  and  C_29
REMARK    3  A    between atoms: O_4  and  C_28
REMARK    4  A    between atoms: O_4  and  C_37
REMARK    5  A    between atoms: O_13  and  C_40
REMARK    6  A    between atoms: O_13  and  C_47
REMARK    7  A    between atoms: O_16  and  C_46
REMARK    8  A    between atoms: O_16  and  C_52
REMARK    9  A    between atoms: C_32  and  C_37
REMARK   10  A    between atoms: C_49  and  C_57
REMARK                            x       y       z     vdW  Elec       q    Type
REMARK                         _______ _______ _______ _____ _____    ______ ____
ROOT
ATOM      1  O   UNL     1     113.802 129.946 139.419  0.00  0.00    +0.000 OA
ENDROOT
BRANCH   1   5
ATOM      2  O   UNL     1     112.595 128.509 138.305  0.00  0.00    +0.000 OA
ATOM      3  O   UNL     1     114.111 128.561 140.260  0.00  0.00    +0.000 OA
ATOM      4  O   UNL     1     113.931 127.146 140.474  0.00  0.00    +0.000 OA
ATOM      5  C   UNL     1     113.451 129.236 139.188  0.00  0.00    +0.000 A 
ATOM      6  C   UNL     1     112.946 129.219 138.536  0.00  0.00    +0.000 A 
ATOM      7  C   UNL     1     113.606 128.544 139.608  0.00  0.00    +0.000 A 
ATOM      8  C   UNL     1     113.255 127.834 139.378  0.00  0.00    +0.000 A 
ATOM      9  C   UNL     1     112.534 126.358 138.909  0.00  0.00    +0.000 A 
ATOM     10  C   UNL     1     112.749 127.816 138.726  0.00  0.00    +0.000 A 
ATOM     11  C   UNL     1     112.378 127.084 138.475  0.00  0.00    +0.000 A 
ATOM     12  C   UNL     1     113.424 127.119 139.824  0.00  0.00    +0.000 A 
ATOM     13  C   UNL     1     113.061 126.376 139.588  0.00  0.00    +0.000 A 
BRANCH   6  15
ATOM     14  O   UNL     1     112.329 131.988 136.850  0.00  0.00    +0.000 OA
ATOM     15  C   UNL     1     112.791 129.911 138.115  0.00  0.00    +0.000 A 
ATOM     16  C   UNL     1     113.372 130.234 137.625  0.00  0.00    +0.000 A 
ATOM     17  C   UNL     1     112.056 130.280 138.183  0.00  0.00    +0.000 A 
ATOM     18  C   UNL     1     113.217 130.926 137.204  0.00  0.00    +0.000 A 
ATOM     19  C   UNL     1     111.903 130.973 137.761  0.00  0.00    +0.000 A 
ATOM     20  C   UNL     1     112.482 131.296 137.272  0.00  0.00    +0.000 A 
ENDBRANCH   6  15
BRANCH   9  21
ATOM     21  O   UNL     1     112.182 125.650 138.675  0.00  0.00    +0.000 OA
BRANCH  21  30
ATOM     22  O   UNL     1     113.293 125.197 137.899  0.00  0.00    +0.000 OA
ATOM     23  O   UNL     1     111.741 124.069 136.335  0.00  0.00    +0.000 OA
ATOM     24  O   UNL     1     113.370 123.992 136.081  0.00  0.00    +0.000 OA
ATOM     25  O   UNL     1     111.148 124.898 137.633  0.00  0.00    +0.000 OA
ATOM     26  C   UNL     1     112.259 124.445 136.857  0.00  0.00    +0.000 C 
ATOM     27  C   UNL     1     113.074 124.407 136.730  0.00  0.00    +0.000 C 
ATOM     28  C   UNL     1     111.962 124.859 137.505  0.00  0.00    +0.000 C 
ATOM     29  C   UNL     1     113.591 124.783 137.251  0.00  0.00    +0.000 C 
ATOM     30  C   UNL     1     112.479 125.235 138.027  0.00  0.00    +0.000 C 
ATOM     31  C   UNL     1     114.405 124.744 137.124  0.00  0.00    +0.000 C 
ENDBRANCH  21  30
ENDBRANCH   9  21
ENDBRANCH   1   5
BRANCH   1  40
ATOM     32  O   UNL     1     112.911 130.132 140.520  0.00  0.00    +0.000 OA
ATOM     33  O   UNL     1     113.172 131.202 142.404  0.00  0.00    +0.000 OA
ATOM     34  O   UNL     1     114.640 131.458 141.694  0.00  0.00    +0.000 OA
ATOM     35  O   UNL     1     114.954 130.830 140.202  0.00  0.00    +0.000 OA
ATOM     36  C   UNL     1     112.754 130.447 141.267  0.00  0.00    +0.000 C 
ATOM     37  C   UNL     1     113.330 130.888 141.658  0.00  0.00    +0.000 C 
ATOM     38  C   UNL     1     114.064 131.016 141.303  0.00  0.00    +0.000 C 
ATOM     39  C   UNL     1     114.221 130.702 140.557  0.00  0.00    +0.000 C 
ATOM     40  C   UNL     1     113.644 130.260 140.165  0.00  0.00    +0.000 C 
BRANCH  36  41
ATOM     41  C   UNL     1     112.020 130.319 141.621  0.00  0.00    +0.000 C 
BRANCH  41  42
ATOM     42  O   UNL     1     111.835 129.576 141.928  0.00  0.00    +0.000 OA
BRANCH  42  50
ATOM     43  O   UNL     1     110.581 129.417 141.261  0.00  0.00    +0.000 OA
ATOM     44  O   UNL     1     109.647 128.325 143.277  0.00  0.00    +0.000 OA
ATOM     45  O   UNL     1     111.213 128.847 143.271  0.00  0.00    +0.000 OA
ATOM     46  C   UNL     1     109.486 128.792 141.936  0.00  0.00    +0.000 C 
ATOM     47  C   UNL     1     109.959 128.689 142.605  0.00  0.00    +0.000 C 
ATOM     48  C   UNL     1     109.797 129.156 141.264  0.00  0.00    +0.000 C 
ATOM     49  C   UNL     1     110.740 128.950 142.602  0.00  0.00    +0.000 C 
ATOM     50  C   UNL     1     111.052 129.314 141.931  0.00  0.00    +0.000 C 
ATOM     51  C   UNL     1     109.327 129.259 140.595  0.00  0.00    +0.000 C 
BRANCH  46  52
ATOM     52  O   UNL     1     108.705 128.530 141.938  0.00  0.00    +0.000 OA
BRANCH  52  57
ATOM     53  O   UNL     1     109.095 127.259 141.417  0.00  0.00    +0.000 OA
ATOM     54  O   UNL     1     107.238 127.905 142.365  0.00  0.00    +0.000 OA
ATOM     55  O   UNL     1     106.896 126.320 142.056  0.00  0.00    +0.000 OA
ATOM     56  O   UNL     1     108.020 125.362 141.321  0.00  0.00    +0.000 OA
ATOM     57  C   UNL     1     108.533 127.738 141.784  0.00  0.00    +0.000 C 
ATOM     58  C   UNL     1     107.800 127.425 141.997  0.00  0.00    +0.000 C 
ATOM     59  C   UNL     1     107.629 126.633 141.843  0.00  0.00    +0.000 C 
ATOM     60  C   UNL     1     108.191 126.154 141.476  0.00  0.00    +0.000 C 
ATOM     61  C   UNL     1     108.924 126.467 141.262  0.00  0.00    +0.000 C 
ATOM     62  C   UNL     1     109.486 125.987 140.895  0.00  0.00    +0.000 C 
ENDBRANCH  52  57
ENDBRANCH  46  52
ENDBRANCH  42  50
ENDBRANCH  41  42
ENDBRANCH  36  41
ENDBRANCH   1  40
TORSDOF 10
ENDMDL
MODEL 7
REMARK VINA RESULT:     -11.5      2.092      3.733
REMARK  Name = 44258758
REMARK  10 active torsions:
REMARK  status: ('A' for Active; 'I' for Inactive)
REMARK    1  A    between atoms: O_1  and  C_24
REMARK    2  A    between atoms: O_1  and  C_29
REMARK    3  A    between atoms: O_4  and  C_28
REMARK    4  A    between atoms: O_4  and  C_37
REMARK    5  A    between atoms: O_13  and  C_40
REMARK    6  A    between atoms: O_13  and  C_47
REMARK    7  A    between atoms: O_16  and  C_46
REMARK    8  A    between atoms: O_16  and  C_52
REMARK    9  A    between atoms: C_32  and  C_37
REMARK   10  A    between atoms: C_49  and  C_57
REMARK                            x       y       z     vdW  Elec       q    Type
REMARK                         _______ _______ _______ _____ _____    ______ ____
ROOT
ATOM      1  O   UNL     1     113.427 127.466 139.898  0.00  0.00    +0.000 OA
ENDROOT
BRANCH   1   5
ATOM      2  O   UNL     1     112.105 128.693 141.126  0.00  0.00    +0.000 OA
ATOM      3  O   UNL     1     112.258 126.370 140.285  0.00  0.00    +0.000 OA
ATOM      4  O   UNL     1     111.026 126.018 140.951  0.00  0.00    +0.000 OA
ATOM      5  C   UNL     1     112.792 127.692 140.371  0.00  0.00    +0.000 A 
ATOM      6  C   UNL     1     112.741 128.466 140.652  0.00  0.00    +0.000 A 
ATOM      7  C   UNL     1     112.207 127.144 140.566  0.00  0.00    +0.000 A 
ATOM      8  C   UNL     1     111.571 127.370 141.040  0.00  0.00    +0.000 A 
ATOM      9  C   UNL     1     110.250 127.827 142.021  0.00  0.00    +0.000 A 
ATOM     10  C   UNL     1     111.520 128.144 141.320  0.00  0.00    +0.000 A 
ATOM     11  C   UNL     1     110.863 128.392 141.815  0.00  0.00    +0.000 A 
ATOM     12  C   UNL     1     110.968 126.790 141.235  0.00  0.00    +0.000 A 
ATOM     13  C   UNL     1     110.302 127.019 141.729  0.00  0.00    +0.000 A 
BRANCH   6  15
ATOM     14  O   UNL     1     115.083 130.659 139.878  0.00  0.00    +0.000 OA
ATOM     15  C   UNL     1     113.326 129.015 140.458  0.00  0.00    +0.000 A 
ATOM     16  C   UNL     1     114.071 128.964 140.810  0.00  0.00    +0.000 A 
ATOM     17  C   UNL     1     113.167 129.613 139.913  0.00  0.00    +0.000 A 
ATOM     18  C   UNL     1     114.656 129.513 140.616  0.00  0.00    +0.000 A 
ATOM     19  C   UNL     1     113.753 130.161 139.720  0.00  0.00    +0.000 A 
ATOM     20  C   UNL     1     114.497 130.111 140.071  0.00  0.00    +0.000 A 
ENDBRANCH   6  15
BRANCH   9  21
ATOM     21  O   UNL     1     109.615 128.056 142.495  0.00  0.00    +0.000 OA
BRANCH  21  30
ATOM     22  O   UNL     1     108.996 129.009 141.629  0.00  0.00    +0.000 OA
ATOM     23  O   UNL     1     106.776 128.052 142.159  0.00  0.00    +0.000 OA
ATOM     24  O   UNL     1     106.899 129.325 141.117  0.00  0.00    +0.000 OA
ATOM     25  O   UNL     1     108.135 127.417 142.849  0.00  0.00    +0.000 OA
ATOM     26  C   UNL     1     107.516 128.371 141.983  0.00  0.00    +0.000 C 
ATOM     27  C   UNL     1     107.578 129.008 141.461  0.00  0.00    +0.000 C 
ATOM     28  C   UNL     1     108.196 128.054 142.327  0.00  0.00    +0.000 C 
ATOM     29  C   UNL     1     108.318 129.327 141.285  0.00  0.00    +0.000 C 
ATOM     30  C   UNL     1     108.935 128.373 142.151  0.00  0.00    +0.000 C 
ATOM     31  C   UNL     1     108.379 129.964 140.763  0.00  0.00    +0.000 C 
ENDBRANCH  21  30
ENDBRANCH   9  21
ENDBRANCH   1   5
BRANCH   1  40
ATOM     32  O   UNL     1     112.737 127.485 138.647  0.00  0.00    +0.000 OA
ATOM     33  O   UNL     1     112.880 126.167 136.914  0.00  0.00    +0.000 OA
ATOM     34  O   UNL     1     113.988 125.477 137.923  0.00  0.00    +0.000 OA
ATOM     35  O   UNL     1     114.262 126.127 139.415  0.00  0.00    +0.000 OA
ATOM     36  C   UNL     1     112.600 127.161 137.901  0.00  0.00    +0.000 C 
ATOM     37  C   UNL     1     113.017 126.492 137.660  0.00  0.00    +0.000 C 
ATOM     38  C   UNL     1     113.571 126.146 138.164  0.00  0.00    +0.000 C 
ATOM     39  C   UNL     1     113.708 126.471 138.910  0.00  0.00    +0.000 C 
ATOM     40  C   UNL     1     113.291 127.141 139.152  0.00  0.00    +0.000 C 
BRANCH  36  41
ATOM     41  C   UNL     1     112.046 127.505 137.396  0.00  0.00    +0.000 C 
BRANCH  41  42
ATOM     42  O   UNL     1     111.360 127.842 137.706  0.00  0.00    +0.000 OA
BRANCH  42  50
ATOM     43  O   UNL     1     111.167 128.581 136.499  0.00  0.00    +0.000 OA
ATOM     44  O   UNL     1     108.947 129.321 137.305  0.00  0.00    +0.000 OA
ATOM     45  O   UNL     1     109.880 128.335 138.244  0.00  0.00    +0.000 OA
ATOM     46  C   UNL     1     109.961 129.321 136.297  0.00  0.00    +0.000 C 
ATOM     47  C   UNL     1     109.687 129.074 137.036  0.00  0.00    +0.000 C 
ATOM     48  C   UNL     1     110.701 129.074 136.029  0.00  0.00    +0.000 C 
ATOM     49  C   UNL     1     110.153 128.582 137.505  0.00  0.00    +0.000 C 
ATOM     50  C   UNL     1     110.893 128.335 137.237  0.00  0.00    +0.000 C 
ATOM     51  C   UNL     1     110.975 129.320 135.291  0.00  0.00    +0.000 C 
BRANCH  46  52
ATOM     52  O   UNL     1     109.495 129.813 135.828  0.00  0.00    +0.000 OA
BRANCH  52  57
ATOM     53  O   UNL     1     110.113 130.961 136.413  0.00  0.00    +0.000 OA
ATOM     54  O   UNL     1     108.464 130.795 134.993  0.00  0.00    +0.000 OA
ATOM     55  O   UNL     1     108.567 132.433 135.161  0.00  0.00    +0.000 OA
ATOM     56  O   UNL     1     109.701 133.090 136.163  0.00  0.00    +0.000 OA
ATOM     57  C   UNL     1     109.546 130.633 135.912  0.00  0.00    +0.000 C 
ATOM     58  C   UNL     1     109.031 131.123 135.494  0.00  0.00    +0.000 C 
ATOM     59  C   UNL     1     109.082 131.943 135.578  0.00  0.00    +0.000 C 
ATOM     60  C   UNL     1     109.649 132.271 136.079  0.00  0.00    +0.000 C 
ATOM     61  C   UNL     1     110.165 131.780 136.497  0.00  0.00    +0.000 C 
ATOM     62  C   UNL     1     110.732 132.109 136.998  0.00  0.00    +0.000 C 
ENDBRANCH  52  57
ENDBRANCH  46  52
ENDBRANCH  42  50
ENDBRANCH  41  42
ENDBRANCH  36  41
ENDBRANCH   1  40
TORSDOF 10
ENDMDL
MODEL 8
REMARK VINA RESULT:     -11.5      1.919      4.202
REMARK  Name = 44258758
REMARK  10 active torsions:
REMARK  status: ('A' for Active; 'I' for Inactive)
REMARK    1  A    between atoms: O_1  and  C_24
REMARK    2  A    between atoms: O_1  and  C_29
REMARK    3  A    between atoms: O_4  and  C_28
REMARK    4  A    between atoms: O_4  and  C_37
REMARK    5  A    between atoms: O_13  and  C_40
REMARK    6  A    between atoms: O_13  and  C_47
REMARK    7  A    between atoms: O_16  and  C_46
REMARK    8  A    between atoms: O_16  and  C_52
REMARK    9  A    between atoms: C_32  and  C_37
REMARK   10  A    between atoms: C_49  and  C_57
REMARK                            x       y       z     vdW  Elec       q    Type
REMARK                         _______ _______ _______ _____ _____    ______ ____
ROOT
ATOM      1  O   UNL     1     112.775 127.170 136.445  0.00  0.00    +0.000 OA
ENDROOT
BRANCH   1   5
ATOM      2  O   UNL     1     111.707 126.023 137.963  0.00  0.00    +0.000 OA
ATOM      3  O   UNL     1     111.307 127.922 136.427  0.00  0.00    +0.000 OA
ATOM      4  O   UNL     1     109.954 128.065 136.909  0.00  0.00    +0.000 OA
ATOM      5  C   UNL     1     112.174 126.914 136.948  0.00  0.00    +0.000 A 
ATOM      6  C   UNL     1     112.308 126.281 137.460  0.00  0.00    +0.000 A 
ATOM      7  C   UNL     1     111.441 127.289 136.939  0.00  0.00    +0.000 A 
ATOM      8  C   UNL     1     110.839 127.033 137.443  0.00  0.00    +0.000 A 
ATOM      9  C   UNL     1     109.588 126.510 138.480  0.00  0.00    +0.000 A 
ATOM     10  C   UNL     1     110.972 126.400 137.955  0.00  0.00    +0.000 A 
ATOM     11  C   UNL     1     110.355 126.123 138.484  0.00  0.00    +0.000 A 
ATOM     12  C   UNL     1     110.079 127.433 137.424  0.00  0.00    +0.000 A 
ATOM     13  C   UNL     1     109.449 127.170 137.947  0.00  0.00    +0.000 A 
BRANCH   6  15
ATOM     14  O   UNL     1     115.244 124.775 137.498  0.00  0.00    +0.000 OA
ATOM     15  C   UNL     1     113.042 125.904 137.469  0.00  0.00    +0.000 A 
ATOM     16  C   UNL     1     113.559 126.026 138.100  0.00  0.00    +0.000 A 
ATOM     17  C   UNL     1     113.258 125.406 136.847  0.00  0.00    +0.000 A 
ATOM     18  C   UNL     1     114.293 125.649 138.109  0.00  0.00    +0.000 A 
ATOM     19  C   UNL     1     113.992 125.030 136.858  0.00  0.00    +0.000 A 
ATOM     20  C   UNL     1     114.510 125.152 137.488  0.00  0.00    +0.000 A 
ENDBRANCH   6  15
BRANCH   9  21
ATOM     21  O   UNL     1     108.989 126.251 138.985  0.00  0.00    +0.000 OA
BRANCH  21  30
ATOM     22  O   UNL     1     108.993 127.331 139.921  0.00  0.00    +0.000 OA
ATOM     23  O   UNL     1     108.804 125.715 141.786  0.00  0.00    +0.000 OA
ATOM     24  O   UNL     1     108.872 127.334 142.100  0.00  0.00    +0.000 OA
ATOM     25  O   UNL     1     108.862 125.174 140.228  0.00  0.00    +0.000 OA
ATOM     26  C   UNL     1     108.867 126.254 141.164  0.00  0.00    +0.000 C 
ATOM     27  C   UNL     1     108.901 127.063 141.321  0.00  0.00    +0.000 C 
ATOM     28  C   UNL     1     108.896 125.983 140.385  0.00  0.00    +0.000 C 
ATOM     29  C   UNL     1     108.964 127.602 140.699  0.00  0.00    +0.000 C 
ATOM     30  C   UNL     1     108.959 126.522 139.764  0.00  0.00    +0.000 C 
ATOM     31  C   UNL     1     108.998 128.411 140.856  0.00  0.00    +0.000 C 
ENDBRANCH  21  30
ENDBRANCH   9  21
ENDBRANCH   1   5
BRANCH   1  40
ATOM     32  O   UNL     1     113.070 128.328 137.229  0.00  0.00    +0.000 OA
ATOM     33  O   UNL     1     113.899 130.265 136.663  0.00  0.00    +0.000 OA
ATOM     34  O   UNL     1     113.872 129.498 135.202  0.00  0.00    +0.000 OA
ATOM     35  O   UNL     1     113.310 127.951 135.093  0.00  0.00    +0.000 OA
ATOM     36  C   UNL     1     113.351 129.101 137.284  0.00  0.00    +0.000 C 
ATOM     37  C   UNL     1     113.618 129.491 136.608  0.00  0.00    +0.000 C 
ATOM     38  C   UNL     1     113.605 129.109 135.878  0.00  0.00    +0.000 C 
ATOM     39  C   UNL     1     113.324 128.335 135.823  0.00  0.00    +0.000 C 
ATOM     40  C   UNL     1     113.056 127.944 136.499  0.00  0.00    +0.000 C 
BRANCH  36  41
ATOM     41  C   UNL     1     113.365 129.484 138.014  0.00  0.00    +0.000 C 
BRANCH  41  42
ATOM     42  O   UNL     1     112.659 129.644 138.409  0.00  0.00    +0.000 OA
BRANCH  42  50
ATOM     43  O   UNL     1     113.359 129.811 139.643  0.00  0.00    +0.000 OA
ATOM     44  O   UNL     1     111.346 130.847 140.645  0.00  0.00    +0.000 OA
ATOM     45  O   UNL     1     111.317 130.334 139.077  0.00  0.00    +0.000 OA
ATOM     46  C   UNL     1     112.703 130.413 140.762  0.00  0.00    +0.000 C 
ATOM     47  C   UNL     1     112.017 130.502 140.311  0.00  0.00    +0.000 C 
ATOM     48  C   UNL     1     113.374 130.068 140.428  0.00  0.00    +0.000 C 
ATOM     49  C   UNL     1     112.002 130.246 139.527  0.00  0.00    +0.000 C 
ATOM     50  C   UNL     1     112.673 129.901 139.194  0.00  0.00    +0.000 C 
ATOM     51  C   UNL     1     114.059 129.979 140.877  0.00  0.00    +0.000 C 
BRANCH  46  52
ATOM     52  O   UNL     1     112.718 130.669 141.545  0.00  0.00    +0.000 OA
BRANCH  52  57
ATOM     53  O   UNL     1     112.400 129.369 142.047  0.00  0.00    +0.000 OA
ATOM     54  O   UNL     1     112.130 131.347 142.930  0.00  0.00    +0.000 OA
ATOM     55  O   UNL     1     111.519 130.386 144.124  0.00  0.00    +0.000 OA
ATOM     56  O   UNL     1     111.495 128.747 143.933  0.00  0.00    +0.000 OA
ATOM     57  C   UNL     1     112.412 130.189 142.143  0.00  0.00    +0.000 C 
ATOM     58  C   UNL     1     112.118 130.527 142.835  0.00  0.00    +0.000 C 
ATOM     59  C   UNL     1     111.812 130.047 143.432  0.00  0.00    +0.000 C 
ATOM     60  C   UNL     1     111.801 129.228 143.337  0.00  0.00    +0.000 C 
ATOM     61  C   UNL     1     112.095 128.888 142.644  0.00  0.00    +0.000 C 
ATOM     62  C   UNL     1     112.083 128.069 142.548  0.00  0.00    +0.000 C 
ENDBRANCH  52  57
ENDBRANCH  46  52
ENDBRANCH  42  50
ENDBRANCH  41  42
ENDBRANCH  36  41
ENDBRANCH   1  40
TORSDOF 10
ENDMDL
MODEL 9
REMARK VINA RESULT:     -11.5      1.504      4.984
REMARK  Name = 44258758
REMARK  10 active torsions:
REMARK  status: ('A' for Active; 'I' for Inactive)
REMARK    1  A    between atoms: O_1  and  C_24
REMARK    2  A    between atoms: O_1  and  C_29
REMARK    3  A    between atoms: O_4  and  C_28
REMARK    4  A    between atoms: O_4  and  C_37
REMARK    5  A    between atoms: O_13  and  C_40
REMARK    6  A    between atoms: O_13  and  C_47
REMARK    7  A    between atoms: O_16  and  C_46
REMARK    8  A    between atoms: O_16  and  C_52
REMARK    9  A    between atoms: C_32  and  C_37
REMARK   10  A    between atoms: C_49  and  C_57
REMARK                            x       y       z     vdW  Elec       q    Type
REMARK                         _______ _______ _______ _____ _____    ______ ____
ROOT
ATOM      1  O   UNL     1     111.255 131.034 137.170  0.00  0.00    +0.000 OA
ENDROOT
BRANCH   1   5
ATOM      2  O   UNL     1     112.340 129.782 138.590  0.00  0.00    +0.000 OA
ATOM      3  O   UNL     1     110.088 130.769 138.305  0.00  0.00    +0.000 OA
ATOM      4  O   UNL     1     109.642 130.180 139.545  0.00  0.00    +0.000 OA
ATOM      5  C   UNL     1     111.422 130.573 137.833  0.00  0.00    +0.000 A 
ATOM      6  C   UNL     1     112.173 130.244 137.928  0.00  0.00    +0.000 A 
ATOM      7  C   UNL     1     110.839 130.440 138.400  0.00  0.00    +0.000 A 
ATOM      8  C   UNL     1     111.006 129.978 139.064  0.00  0.00    +0.000 A 
ATOM      9  C   UNL     1     111.340 129.025 140.440  0.00  0.00    +0.000 A 
ATOM     10  C   UNL     1     111.756 129.649 139.159  0.00  0.00    +0.000 A 
ATOM     11  C   UNL     1     111.943 129.167 139.845  0.00  0.00    +0.000 A 
ATOM     12  C   UNL     1     110.390 129.848 139.648  0.00  0.00    +0.000 A 
ATOM     13  C   UNL     1     110.558 129.367 140.341  0.00  0.00    +0.000 A 
BRANCH   6  15
ATOM     14  O   UNL     1     114.508 130.771 135.656  0.00  0.00    +0.000 OA
ATOM     15  C   UNL     1     112.756 130.376 137.360  0.00  0.00    +0.000 A 
ATOM     16  C   UNL     1     112.973 129.770 136.842  0.00  0.00    +0.000 A 
ATOM     17  C   UNL     1     113.124 131.113 137.310  0.00  0.00    +0.000 A 
ATOM     18  C   UNL     1     113.556 129.903 136.275  0.00  0.00    +0.000 A 
ATOM     19  C   UNL     1     113.708 131.244 136.742  0.00  0.00    +0.000 A 
ATOM     20  C   UNL     1     113.924 130.640 136.225  0.00  0.00    +0.000 A 
ENDBRANCH   6  15
BRANCH   9  21
ATOM     21  O   UNL     1     111.510 128.563 141.102  0.00  0.00    +0.000 OA
BRANCH  21  30
ATOM     22  O   UNL     1     111.988 129.654 141.890  0.00  0.00    +0.000 OA
ATOM     23  O   UNL     1     111.192 128.523 143.942  0.00  0.00    +0.000 OA
ATOM     24  O   UNL     1     111.936 129.992 144.046  0.00  0.00    +0.000 OA
ATOM     25  O   UNL     1     110.979 127.808 142.470  0.00  0.00    +0.000 OA
ATOM     26  C   UNL     1     111.457 128.900 143.258  0.00  0.00    +0.000 C 
ATOM     27  C   UNL     1     111.830 129.635 143.310  0.00  0.00    +0.000 C 
ATOM     28  C   UNL     1     111.351 128.543 142.522  0.00  0.00    +0.000 C 
ATOM     29  C   UNL     1     112.095 130.012 142.626  0.00  0.00    +0.000 C 
ATOM     30  C   UNL     1     111.616 128.920 141.838  0.00  0.00    +0.000 C 
ATOM     31  C   UNL     1     112.467 130.747 142.678  0.00  0.00    +0.000 C 
ENDBRANCH  21  30
ENDBRANCH   9  21
ENDBRANCH   1   5
BRANCH   1  40
ATOM     32  O   UNL     1     110.552 130.013 136.459  0.00  0.00    +0.000 OA
ATOM     33  O   UNL     1     108.852 130.132 135.096  0.00  0.00    +0.000 OA
ATOM     34  O   UNL     1     109.056 131.724 135.480  0.00  0.00    +0.000 OA
ATOM     35  O   UNL     1     110.257 132.175 136.518  0.00  0.00    +0.000 OA
ATOM     36  C   UNL     1     109.951 129.788 135.940  0.00  0.00    +0.000 C 
ATOM     37  C   UNL     1     109.453 130.358 135.614  0.00  0.00    +0.000 C 
ATOM     38  C   UNL     1     109.554 131.154 135.806  0.00  0.00    +0.000 C 
ATOM     39  C   UNL     1     110.155 131.379 136.325  0.00  0.00    +0.000 C 
ATOM     40  C   UNL     1     110.654 130.808 136.652  0.00  0.00    +0.000 C 
BRANCH  36  41
ATOM     41  C   UNL     1     109.849 128.993 135.748  0.00  0.00    +0.000 C 
BRANCH  41  42
ATOM     42  O   UNL     1     109.641 128.450 136.334  0.00  0.00    +0.000 OA
BRANCH  42  50
ATOM     43  O   UNL     1     110.398 127.437 135.669  0.00  0.00    +0.000 OA
ATOM     44  O   UNL     1     109.926 125.867 137.523  0.00  0.00    +0.000 OA
ATOM     45  O   UNL     1     109.326 127.404 137.570  0.00  0.00    +0.000 OA
ATOM     46  C   UNL     1     110.541 126.145 136.264  0.00  0.00    +0.000 C 
ATOM     47  C   UNL     1     110.083 126.391 136.905  0.00  0.00    +0.000 C 
ATOM     48  C   UNL     1     110.699 126.668 135.646  0.00  0.00    +0.000 C 
ATOM     49  C   UNL     1     109.783 127.158 136.929  0.00  0.00    +0.000 C 
ATOM     50  C   UNL     1     109.941 127.681 136.311  0.00  0.00    +0.000 C 
ATOM     51  C   UNL     1     111.156 126.424 135.005  0.00  0.00    +0.000 C 
BRANCH  46  52
ATOM     52  O   UNL     1     110.841 125.378 136.241  0.00  0.00    +0.000 OA
BRANCH  52  57
ATOM     53  O   UNL     1     112.011 125.812 136.936  0.00  0.00    +0.000 OA
ATOM     54  O   UNL     1     111.440 123.841 136.194  0.00  0.00    +0.000 OA
ATOM     55  O   UNL     1     112.910 123.508 136.867  0.00  0.00    +0.000 OA
ATOM     56  O   UNL     1     113.780 124.712 137.585  0.00  0.00    +0.000 OA
ATOM     57  C   UNL     1     111.576 125.210 136.577  0.00  0.00    +0.000 C 
ATOM     58  C   UNL     1     111.875 124.443 136.554  0.00  0.00    +0.000 C 
ATOM     59  C   UNL     1     112.610 124.276 136.890  0.00  0.00    +0.000 C 
ATOM     60  C   UNL     1     113.046 124.878 137.249  0.00  0.00    +0.000 C 
ATOM     61  C   UNL     1     112.746 125.647 137.272  0.00  0.00    +0.000 C 
ATOM     62  C   UNL     1     113.181 126.248 137.631  0.00  0.00    +0.000 C 
ENDBRANCH  52  57
ENDBRANCH  46  52
ENDBRANCH  42  50
ENDBRANCH  41  42
ENDBRANCH  36  41
ENDBRANCH   1  40
TORSDOF 10
ENDMDL
MODEL 10
REMARK VINA RESULT:     -11.5      1.760      6.615
REMARK  Name = 44258758
REMARK  10 active torsions:
REMARK  status: ('A' for Active; 'I' for Inactive)
REMARK    1  A    between atoms: O_1  and  C_24
REMARK    2  A    between atoms: O_1  and  C_29
REMARK    3  A    between atoms: O_4  and  C_28
REMARK    4  A    between atoms: O_4  and  C_37
REMARK    5  A    between atoms: O_13  and  C_40
REMARK    6  A    between atoms: O_13  and  C_47
REMARK    7  A    between atoms: O_16  and  C_46
REMARK    8  A    between atoms: O_16  and  C_52
REMARK    9  A    between atoms: C_32  and  C_37
REMARK   10  A    between atoms: C_49  and  C_57
REMARK                            x       y       z     vdW  Elec       q    Type
REMARK                         _______ _______ _______ _____ _____    ______ ____
ROOT
ATOM      1  O   UNL     1     110.190 130.693 141.373  0.00  0.00    +0.000 OA
ENDROOT
BRANCH   1   5
ATOM      2  O   UNL     1     109.065 129.923 139.669  0.00  0.00    +0.000 OA
ATOM      3  O   UNL     1     110.589 131.795 140.213  0.00  0.00    +0.000 OA
ATOM      4  O   UNL     1     110.496 132.301 138.865  0.00  0.00    +0.000 OA
ATOM      5  C   UNL     1     109.882 130.620 140.612  0.00  0.00    +0.000 A 
ATOM      6  C   UNL     1     109.374 129.996 140.431  0.00  0.00    +0.000 A 
ATOM      7  C   UNL     1     110.081 131.171 140.032  0.00  0.00    +0.000 A 
ATOM      8  C   UNL     1     109.772 131.099 139.270  0.00  0.00    +0.000 A 
ATOM      9  C   UNL     1     109.140 130.959 137.690  0.00  0.00    +0.000 A 
ATOM     10  C   UNL     1     109.264 130.475 139.089  0.00  0.00    +0.000 A 
ATOM     11  C   UNL     1     108.937 130.388 138.300  0.00  0.00    +0.000 A 
ATOM     12  C   UNL     1     109.988 131.680 138.675  0.00  0.00    +0.000 A 
ATOM     13  C   UNL     1     109.670 131.609 137.879  0.00  0.00    +0.000 A 
BRANCH   6  15
ATOM     14  O   UNL     1     108.576 127.787 142.749  0.00  0.00    +0.000 OA
ATOM     15  C   UNL     1     109.174 129.444 141.010  0.00  0.00    +0.000 A 
ATOM     16  C   UNL     1     109.485 128.680 140.977  0.00  0.00    +0.000 A 
ATOM     17  C   UNL     1     108.664 129.656 141.623  0.00  0.00    +0.000 A 
ATOM     18  C   UNL     1     109.285 128.128 141.556  0.00  0.00    +0.000 A 
ATOM     19  C   UNL     1     108.465 129.103 142.203  0.00  0.00    +0.000 A 
ATOM     20  C   UNL     1     108.775 128.340 142.169  0.00  0.00    +0.000 A 
ENDBRANCH   6  15
BRANCH   9  21
ATOM     21  O   UNL     1     108.830 130.884 136.929  0.00  0.00    +0.000 OA
BRANCH  21  30
ATOM     22  O   UNL     1     109.957 130.386 136.206  0.00  0.00    +0.000 OA
ATOM     23  O   UNL     1     108.539 128.616 135.213  0.00  0.00    +0.000 OA
ATOM     24  O   UNL     1     110.140 128.709 134.821  0.00  0.00    +0.000 OA
ATOM     25  O   UNL     1     107.885 129.704 136.268  0.00  0.00    +0.000 OA
ATOM     26  C   UNL     1     109.012 129.206 135.544  0.00  0.00    +0.000 C 
ATOM     27  C   UNL     1     109.813 129.253 135.348  0.00  0.00    +0.000 C 
ATOM     28  C   UNL     1     108.685 129.750 136.071  0.00  0.00    +0.000 C 
ATOM     29  C   UNL     1     110.285 129.843 135.679  0.00  0.00    +0.000 C 
ATOM     30  C   UNL     1     109.157 130.340 136.402  0.00  0.00    +0.000 C 
ATOM     31  C   UNL     1     111.085 129.888 135.483  0.00  0.00    +0.000 C 
ENDBRANCH  21  30
ENDBRANCH   9  21
ENDBRANCH   1   5
BRANCH   1  40
ATOM     32  O   UNL     1     111.462 130.117 141.068  0.00  0.00    +0.000 OA
ATOM     33  O   UNL     1     113.452 130.550 141.852  0.00  0.00    +0.000 OA
ATOM     34  O   UNL     1     112.540 131.631 142.702  0.00  0.00    +0.000 OA
ATOM     35  O   UNL     1     110.909 131.702 142.462  0.00  0.00    +0.000 OA
ATOM     36  C   UNL     1     112.277 130.081 141.188  0.00  0.00    +0.000 C 
ATOM     37  C   UNL     1     112.636 130.585 141.732  0.00  0.00    +0.000 C 
ATOM     38  C   UNL     1     112.181 131.126 142.157  0.00  0.00    +0.000 C 
ATOM     39  C   UNL     1     111.365 131.162 142.038  0.00  0.00    +0.000 C 
ATOM     40  C   UNL     1     111.005 130.657 141.493  0.00  0.00    +0.000 C 
BRANCH  36  41
ATOM     41  C   UNL     1     112.733 129.541 140.763  0.00  0.00    +0.000 C 
BRANCH  41  42
ATOM     42  O   UNL     1     112.837 129.638 139.951  0.00  0.00    +0.000 OA
BRANCH  42  50
ATOM     43  O   UNL     1     112.890 128.220 139.786  0.00  0.00    +0.000 OA
ATOM     44  O   UNL     1     113.085 128.511 137.336  0.00  0.00    +0.000 OA
ATOM     45  O   UNL     1     112.968 129.833 138.318  0.00  0.00    +0.000 OA
ATOM     46  C   UNL     1     113.014 127.656 138.478  0.00  0.00    +0.000 C 
ATOM     47  C   UNL     1     113.020 128.414 138.153  0.00  0.00    +0.000 C 
ATOM     48  C   UNL     1     112.949 127.559 139.295  0.00  0.00    +0.000 C 
ATOM     49  C   UNL     1     112.961 129.074 138.643  0.00  0.00    +0.000 C 
ATOM     50  C   UNL     1     112.896 128.977 139.460  0.00  0.00    +0.000 C 
ATOM     51  C   UNL     1     112.942 126.801 139.622  0.00  0.00    +0.000 C 
BRANCH  46  52
ATOM     52  O   UNL     1     113.073 126.996 137.988  0.00  0.00    +0.000 OA
BRANCH  52  57
ATOM     53  O   UNL     1     111.652 126.857 137.932  0.00  0.00    +0.000 OA
ATOM     54  O   UNL     1     113.217 126.053 136.642  0.00  0.00    +0.000 OA
ATOM     55  O   UNL     1     111.869 125.444 135.912  0.00  0.00    +0.000 OA
ATOM     56  O   UNL     1     110.375 125.777 136.529  0.00  0.00    +0.000 OA
ATOM     57  C   UNL     1     112.398 126.691 137.623  0.00  0.00    +0.000 C 
ATOM     58  C   UNL     1     112.471 126.220 136.950  0.00  0.00    +0.000 C 
ATOM     59  C   UNL     1     111.796 125.915 136.585  0.00  0.00    +0.000 C 
ATOM     60  C   UNL     1     111.050 126.082 136.893  0.00  0.00    +0.000 C 
ATOM     61  C   UNL     1     110.977 126.553 137.567  0.00  0.00    +0.000 C 
ATOM     62  C   UNL     1     110.230 126.720 137.876  0.00  0.00    +0.000 C 
ENDBRANCH  52  57
ENDBRANCH  46  52
ENDBRANCH  42  50
ENDBRANCH  41  42
ENDBRANCH  36  41
ENDBRANCH   1  40
TORSDOF 10
ENDMDL
