MODEL 1
REMARK VINA RESULT:      -9.1      0.000      0.000
REMARK  Name = 23757216
REMARK  10 active torsions:
REMARK  status: ('A' for Active; 'I' for Inactive)
REMARK    1  A    between atoms: O_3  and  C_20
REMARK    2  A    between atoms: O_3  and  C_22
REMARK    3  A    between atoms: O_6  and  C_21
REMARK    4  A    between atoms: O_6  and  C_25
REMARK    5  A    between atoms: C_18  and  C_21
REMARK    6  A    between atoms: C_23  and  C_24
REMARK    7  A    between atoms: C_23  and  C_28
REMARK    8  A    between atoms: C_24  and  C_25
REMARK    9  A    between atoms: C_26  and  C_32
REMARK   10  A    between atoms: C_28  and  C_34
REMARK                            x       y       z     vdW  Elec       q    Type
REMARK                         _______ _______ _______ _____ _____    ______ ____
ROOT
ATOM      1  O   UNL     1     112.197 125.341 137.037  0.00  0.00    +0.000 OA
ENDROOT
BRANCH   1   6
ATOM      2  O   UNL     1     113.426 126.176 138.637  0.00  0.00    +0.000 OA
ATOM      3  O   UNL     1     111.041 125.724 138.151  0.00  0.00    +0.000 OA
ATOM      4  O   UNL     1     110.650 126.258 139.433  0.00  0.00    +0.000 OA
ATOM      5  O   UNL     1     112.710 127.268 141.240  0.00  0.00    +0.000 OA
ATOM      6  C   UNL     1     112.414 125.683 137.756  0.00  0.00    +0.000 A 
ATOM      7  C   UNL     1     113.209 125.833 137.918  0.00  0.00    +0.000 A 
ATOM      8  C   UNL     1     111.837 125.875 138.313  0.00  0.00    +0.000 A 
ATOM      9  C   UNL     1     112.054 126.217 139.032  0.00  0.00    +0.000 A 
ATOM     10  C   UNL     1     112.848 126.367 139.193  0.00  0.00    +0.000 A 
ATOM     11  C   UNL     1     111.442 126.412 139.603  0.00  0.00    +0.000 A 
ATOM     12  C   UNL     1     113.087 126.723 139.938  0.00  0.00    +0.000 A 
ATOM     13  C   UNL     1     111.662 126.769 140.353  0.00  0.00    +0.000 A 
ATOM     14  C   UNL     1     112.490 126.926 140.522  0.00  0.00    +0.000 A 
BRANCH   7  16
ATOM     15  O   UNL     1     115.518 125.063 135.690  0.00  0.00    +0.000 OA
ATOM     16  C   UNL     1     113.787 125.641 137.361  0.00  0.00    +0.000 A 
ATOM     17  C   UNL     1     114.124 126.233 136.895  0.00  0.00    +0.000 A 
ATOM     18  C   UNL     1     114.026 124.857 137.270  0.00  0.00    +0.000 A 
ATOM     19  C   UNL     1     114.701 126.039 136.338  0.00  0.00    +0.000 A 
ATOM     20  C   UNL     1     114.604 124.665 136.713  0.00  0.00    +0.000 A 
ATOM     21  C   UNL     1     114.941 125.256 136.247  0.00  0.00    +0.000 A 
ENDBRANCH   7  16
ENDBRANCH   1   6
BRANCH   1  30
ATOM     22  O   UNL     1     111.682 126.562 136.502  0.00  0.00    +0.000 OA
ATOM     23  O   UNL     1     110.128 126.926 135.013  0.00  0.00    +0.000 OA
ATOM     24  O   UNL     1     110.123 125.277 135.072  0.00  0.00    +0.000 OA
ATOM     25  O   UNL     1     111.157 124.485 136.084  0.00  0.00    +0.000 OA
ATOM     26  C   UNL     1     110.646 126.530 135.519  0.00  0.00    +0.000 C 
ATOM     27  C   UNL     1     110.643 125.706 135.548  0.00  0.00    +0.000 C 
ATOM     28  C   UNL     1     111.166 126.958 135.996  0.00  0.00    +0.000 C 
ATOM     29  C   UNL     1     111.160 125.309 136.055  0.00  0.00    +0.000 C 
ATOM     30  C   UNL     1     111.680 125.737 136.532  0.00  0.00    +0.000 C 
BRANCH  28  31
ATOM     31  C   UNL     1     111.168 127.783 135.966  0.00  0.00    +0.000 C 
BRANCH  31  32
ATOM     32  O   UNL     1     111.807 128.205 136.270  0.00  0.00    +0.000 OA
BRANCH  32  34
ATOM     33  O   UNL     1     111.665 129.512 135.710  0.00  0.00    +0.000 OA
ATOM     34  C   UNL     1     111.753 129.023 136.368  0.00  0.00    +0.000 C 
BRANCH  34  35
ATOM     35  C   UNL     1     111.787 129.351 137.124  0.00  0.00    +0.000 C 
BRANCH  35  37
ATOM     36  O   UNL     1     112.928 129.374 137.364  0.00  0.00    +0.000 OA
ATOM     37  C   UNL     1     112.336 129.943 137.294  0.00  0.00    +0.000 C 
ATOM     38  C   UNL     1     111.742 130.512 137.223  0.00  0.00    +0.000 C 
BRANCH  37  39
ATOM     39  C   UNL     1     112.884 130.536 137.463  0.00  0.00    +0.000 C 
BRANCH  39  42
ATOM     40  O   UNL     1     113.947 130.415 138.410  0.00  0.00    +0.000 OA
ATOM     41  O   UNL     1     112.676 130.923 138.823  0.00  0.00    +0.000 OA
ATOM     42  C   UNL     1     113.169 130.625 138.232  0.00  0.00    +0.000 C 
ENDBRANCH  39  42
ENDBRANCH  37  39
ENDBRANCH  35  37
ENDBRANCH  34  35
ENDBRANCH  32  34
ENDBRANCH  31  32
ENDBRANCH  28  31
ENDBRANCH   1  30
TORSDOF 10
ENDMDL
MODEL 2
REMARK VINA RESULT:      -9.1      1.301      4.312
REMARK  Name = 23757216
REMARK  10 active torsions:
REMARK  status: ('A' for Active; 'I' for Inactive)
REMARK    1  A    between atoms: O_3  and  C_20
REMARK    2  A    between atoms: O_3  and  C_22
REMARK    3  A    between atoms: O_6  and  C_21
REMARK    4  A    between atoms: O_6  and  C_25
REMARK    5  A    between atoms: C_18  and  C_21
REMARK    6  A    between atoms: C_23  and  C_24
REMARK    7  A    between atoms: C_23  and  C_28
REMARK    8  A    between atoms: C_24  and  C_25
REMARK    9  A    between atoms: C_26  and  C_32
REMARK   10  A    between atoms: C_28  and  C_34
REMARK                            x       y       z     vdW  Elec       q    Type
REMARK                         _______ _______ _______ _____ _____    ______ ____
ROOT
ATOM      1  O   UNL     1     113.475 126.657 138.347  0.00  0.00    +0.000 OA
ENDROOT
BRANCH   1   6
ATOM      2  O   UNL     1     112.057 128.316 138.296  0.00  0.00    +0.000 OA
ATOM      3  O   UNL     1     113.915 127.399 136.941  0.00  0.00    +0.000 OA
ATOM      4  O   UNL     1     113.756 128.447 135.962  0.00  0.00    +0.000 OA
ATOM      5  O   UNL     1     111.678 130.460 136.362  0.00  0.00    +0.000 OA
ATOM      6  C   UNL     1     113.076 127.333 138.096  0.00  0.00    +0.000 A 
ATOM      7  C   UNL     1     112.456 127.639 138.547  0.00  0.00    +0.000 A 
ATOM      8  C   UNL     1     113.296 127.705 137.393  0.00  0.00    +0.000 A 
ATOM      9  C   UNL     1     112.897 128.382 137.141  0.00  0.00    +0.000 A 
ATOM     10  C   UNL     1     112.278 128.687 137.593  0.00  0.00    +0.000 A 
ATOM     11  C   UNL     1     113.136 128.760 136.407  0.00  0.00    +0.000 A 
ATOM     12  C   UNL     1     111.855 129.392 137.342  0.00  0.00    +0.000 A 
ATOM     13  C   UNL     1     112.724 129.465 136.140  0.00  0.00    +0.000 A 
ATOM     14  C   UNL     1     112.079 129.783 136.611  0.00  0.00    +0.000 A 
BRANCH   7  16
ATOM     15  O   UNL     1     111.580 126.153 141.359  0.00  0.00    +0.000 OA
ATOM     16  C   UNL     1     112.237 127.268 139.250  0.00  0.00    +0.000 A 
ATOM     17  C   UNL     1     111.535 126.835 139.287  0.00  0.00    +0.000 A 
ATOM     18  C   UNL     1     112.720 127.329 139.917  0.00  0.00    +0.000 A 
ATOM     19  C   UNL     1     111.317 126.464 139.991  0.00  0.00    +0.000 A 
ATOM     20  C   UNL     1     112.500 126.957 140.620  0.00  0.00    +0.000 A 
ATOM     21  C   UNL     1     111.799 126.524 140.657  0.00  0.00    +0.000 A 
ENDBRANCH   7  16
ENDBRANCH   1   6
BRANCH   1  30
ATOM     22  O   UNL     1     112.876 125.815 137.359  0.00  0.00    +0.000 OA
ATOM     23  O   UNL     1     113.607 123.999 136.395  0.00  0.00    +0.000 OA
ATOM     24  O   UNL     1     114.872 124.353 137.394  0.00  0.00    +0.000 OA
ATOM     25  O   UNL     1     114.806 125.681 138.370  0.00  0.00    +0.000 OA
ATOM     26  C   UNL     1     113.574 124.664 136.883  0.00  0.00    +0.000 C 
ATOM     27  C   UNL     1     114.207 124.840 137.382  0.00  0.00    +0.000 C 
ATOM     28  C   UNL     1     112.909 125.151 136.872  0.00  0.00    +0.000 C 
ATOM     29  C   UNL     1     114.173 125.505 137.871  0.00  0.00    +0.000 C 
ATOM     30  C   UNL     1     113.508 125.993 137.859  0.00  0.00    +0.000 C 
BRANCH  28  31
ATOM     31  C   UNL     1     112.277 124.974 136.372  0.00  0.00    +0.000 C 
BRANCH  31  32
ATOM     32  O   UNL     1     111.573 125.399 136.429  0.00  0.00    +0.000 OA
BRANCH  32  34
ATOM     33  O   UNL     1     110.703 124.640 135.588  0.00  0.00    +0.000 OA
ATOM     34  C   UNL     1     111.019 125.366 135.818  0.00  0.00    +0.000 C 
BRANCH  34  35
ATOM     35  C   UNL     1     110.781 126.058 135.439  0.00  0.00    +0.000 C 
BRANCH  35  37
ATOM     36  O   UNL     1     110.049 126.427 136.269  0.00  0.00    +0.000 OA
ATOM     37  C   UNL     1     109.989 126.289 135.459  0.00  0.00    +0.000 C 
ATOM     38  C   UNL     1     109.929 126.151 134.647  0.00  0.00    +0.000 C 
BRANCH  37  39
ATOM     39  C   UNL     1     109.197 126.520 135.477  0.00  0.00    +0.000 C 
BRANCH  39  42
ATOM     40  O   UNL     1     108.532 127.456 136.327  0.00  0.00    +0.000 OA
ATOM     41  O   UNL     1     109.271 127.919 135.195  0.00  0.00    +0.000 OA
ATOM     42  C   UNL     1     109.000 127.299 135.666  0.00  0.00    +0.000 C 
ENDBRANCH  39  42
ENDBRANCH  37  39
ENDBRANCH  35  37
ENDBRANCH  34  35
ENDBRANCH  32  34
ENDBRANCH  31  32
ENDBRANCH  28  31
ENDBRANCH   1  30
TORSDOF 10
ENDMDL
MODEL 3
REMARK VINA RESULT:      -9.1      1.969      3.903
REMARK  Name = 23757216
REMARK  10 active torsions:
REMARK  status: ('A' for Active; 'I' for Inactive)
REMARK    1  A    between atoms: O_3  and  C_20
REMARK    2  A    between atoms: O_3  and  C_22
REMARK    3  A    between atoms: O_6  and  C_21
REMARK    4  A    between atoms: O_6  and  C_25
REMARK    5  A    between atoms: C_18  and  C_21
REMARK    6  A    between atoms: C_23  and  C_24
REMARK    7  A    between atoms: C_23  and  C_28
REMARK    8  A    between atoms: C_24  and  C_25
REMARK    9  A    between atoms: C_26  and  C_32
REMARK   10  A    between atoms: C_28  and  C_34
REMARK                            x       y       z     vdW  Elec       q    Type
REMARK                         _______ _______ _______ _____ _____    ______ ____
ROOT
ATOM      1  O   UNL     1     112.535 129.029 135.711  0.00  0.00    +0.000 OA
ENDROOT
BRANCH   1   6
ATOM      2  O   UNL     1     114.224 127.705 136.113  0.00  0.00    +0.000 OA
ATOM      3  O   UNL     1     111.750 127.661 136.195  0.00  0.00    +0.000 OA
ATOM      4  O   UNL     1     111.761 126.294 136.657  0.00  0.00    +0.000 OA
ATOM      5  O   UNL     1     114.324 124.947 137.043  0.00  0.00    +0.000 OA
ATOM      6  C   UNL     1     112.967 128.360 135.926  0.00  0.00    +0.000 A 
ATOM      7  C   UNL     1     113.792 128.375 135.898  0.00  0.00    +0.000 A 
ATOM      8  C   UNL     1     112.575 127.676 136.168  0.00  0.00    +0.000 A 
ATOM      9  C   UNL     1     113.007 127.006 136.382  0.00  0.00    +0.000 A 
ATOM     10  C   UNL     1     113.831 127.021 136.355  0.00  0.00    +0.000 A 
ATOM     11  C   UNL     1     112.586 126.300 136.633  0.00  0.00    +0.000 A 
ATOM     12  C   UNL     1     114.292 126.331 136.576  0.00  0.00    +0.000 A 
ATOM     13  C   UNL     1     113.030 125.599 136.858  0.00  0.00    +0.000 A 
ATOM     14  C   UNL     1     113.890 125.615 136.829  0.00  0.00    +0.000 A 
BRANCH   7  16
ATOM     15  O   UNL     1     115.360 131.112 134.932  0.00  0.00    +0.000 OA
ATOM     16  C   UNL     1     114.184 129.059 135.656  0.00  0.00    +0.000 A 
ATOM     17  C   UNL     1     114.219 129.253 134.855  0.00  0.00    +0.000 A 
ATOM     18  C   UNL     1     114.541 129.549 136.217  0.00  0.00    +0.000 A 
ATOM     19  C   UNL     1     114.611 129.938 134.615  0.00  0.00    +0.000 A 
ATOM     20  C   UNL     1     114.933 130.234 135.974  0.00  0.00    +0.000 A 
ATOM     21  C   UNL     1     114.968 130.428 135.173  0.00  0.00    +0.000 A 
ENDBRANCH   7  16
ENDBRANCH   1   6
BRANCH   1  30
ATOM     22  O   UNL     1     112.176 129.375 137.051  0.00  0.00    +0.000 OA
ATOM     23  O   UNL     1     110.403 130.370 137.843  0.00  0.00    +0.000 OA
ATOM     24  O   UNL     1     110.054 130.349 136.231  0.00  0.00    +0.000 OA
ATOM     25  O   UNL     1     111.120 129.679 135.165  0.00  0.00    +0.000 OA
ATOM     26  C   UNL     1     110.936 130.035 137.310  0.00  0.00    +0.000 C 
ATOM     27  C   UNL     1     110.761 130.024 136.504  0.00  0.00    +0.000 C 
ATOM     28  C   UNL     1     111.644 129.710 137.583  0.00  0.00    +0.000 C 
ATOM     29  C   UNL     1     111.295 129.689 135.971  0.00  0.00    +0.000 C 
ATOM     30  C   UNL     1     112.003 129.364 136.244  0.00  0.00    +0.000 C 
BRANCH  28  31
ATOM     31  C   UNL     1     111.818 129.721 138.390  0.00  0.00    +0.000 C 
BRANCH  31  32
ATOM     32  O   UNL     1     112.513 130.073 138.658  0.00  0.00    +0.000 OA
BRANCH  32  34
ATOM     33  O   UNL     1     112.270 129.802 140.039  0.00  0.00    +0.000 OA
ATOM     34  C   UNL     1     112.798 129.904 139.414  0.00  0.00    +0.000 C 
BRANCH  34  35
ATOM     35  C   UNL     1     113.609 129.836 139.544  0.00  0.00    +0.000 C 
BRANCH  35  37
ATOM     36  O   UNL     1     113.885 130.931 139.841  0.00  0.00    +0.000 OA
ATOM     37  C   UNL     1     113.953 130.194 140.204  0.00  0.00    +0.000 C 
ATOM     38  C   UNL     1     114.021 129.455 140.567  0.00  0.00    +0.000 C 
BRANCH  37  39
ATOM     39  C   UNL     1     114.297 130.550 140.864  0.00  0.00    +0.000 C 
BRANCH  39  42
ATOM     40  O   UNL     1     115.703 130.389 140.669  0.00  0.00    +0.000 OA
ATOM     41  O   UNL     1     115.156 131.691 140.891  0.00  0.00    +0.000 OA
ATOM     42  C   UNL     1     115.052 130.877 140.808  0.00  0.00    +0.000 C 
ENDBRANCH  39  42
ENDBRANCH  37  39
ENDBRANCH  35  37
ENDBRANCH  34  35
ENDBRANCH  32  34
ENDBRANCH  31  32
ENDBRANCH  28  31
ENDBRANCH   1  30
TORSDOF 10
ENDMDL
MODEL 4
REMARK VINA RESULT:      -9.0      1.789      3.732
REMARK  Name = 23757216
REMARK  10 active torsions:
REMARK  status: ('A' for Active; 'I' for Inactive)
REMARK    1  A    between atoms: O_3  and  C_20
REMARK    2  A    between atoms: O_3  and  C_22
REMARK    3  A    between atoms: O_6  and  C_21
REMARK    4  A    between atoms: O_6  and  C_25
REMARK    5  A    between atoms: C_18  and  C_21
REMARK    6  A    between atoms: C_23  and  C_24
REMARK    7  A    between atoms: C_23  and  C_28
REMARK    8  A    between atoms: C_24  and  C_25
REMARK    9  A    between atoms: C_26  and  C_32
REMARK   10  A    between atoms: C_28  and  C_34
REMARK                            x       y       z     vdW  Elec       q    Type
REMARK                         _______ _______ _______ _____ _____    ______ ____
ROOT
ATOM      1  O   UNL     1     112.640 126.487 137.532  0.00  0.00    +0.000 OA
ENDROOT
BRANCH   1   6
ATOM      2  O   UNL     1     112.823 128.562 138.187  0.00  0.00    +0.000 OA
ATOM      3  O   UNL     1     113.072 127.222 136.120  0.00  0.00    +0.000 OA
ATOM      4  O   UNL     1     113.427 128.400 135.365  0.00  0.00    +0.000 OA
ATOM      5  O   UNL     1     113.532 130.981 136.729  0.00  0.00    +0.000 OA
ATOM      6  C   UNL     1     112.773 127.301 137.515  0.00  0.00    +0.000 A 
ATOM      7  C   UNL     1     112.690 127.748 138.204  0.00  0.00    +0.000 A 
ATOM      8  C   UNL     1     112.989 127.669 136.809  0.00  0.00    +0.000 A 
ATOM      9  C   UNL     1     113.122 128.483 136.792  0.00  0.00    +0.000 A 
ATOM     10  C   UNL     1     113.039 128.929 137.480  0.00  0.00    +0.000 A 
ATOM     11  C   UNL     1     113.346 128.854 136.050  0.00  0.00    +0.000 A 
ATOM     12  C   UNL     1     113.175 129.777 137.475  0.00  0.00    +0.000 A 
ATOM     13  C   UNL     1     113.486 129.702 136.025  0.00  0.00    +0.000 A 
ATOM     14  C   UNL     1     113.400 130.167 136.743  0.00  0.00    +0.000 A 
BRANCH   7  16
ATOM     15  O   UNL     1     111.829 126.274 141.028  0.00  0.00    +0.000 OA
ATOM     16  C   UNL     1     112.474 127.380 138.910  0.00  0.00    +0.000 A 
ATOM     17  C   UNL     1     111.709 127.470 139.206  0.00  0.00    +0.000 A 
ATOM     18  C   UNL     1     113.024 126.920 139.321  0.00  0.00    +0.000 A 
ATOM     19  C   UNL     1     111.495 127.101 139.912  0.00  0.00    +0.000 A 
ATOM     20  C   UNL     1     112.809 126.552 140.026  0.00  0.00    +0.000 A 
ATOM     21  C   UNL     1     112.044 126.642 140.322  0.00  0.00    +0.000 A 
ENDBRANCH   7  16
ENDBRANCH   1   6
BRANCH   1  30
ATOM     22  O   UNL     1     111.343 126.549 136.936  0.00  0.00    +0.000 OA
ATOM     23  O   UNL     1     110.312 125.154 135.611  0.00  0.00    +0.000 OA
ATOM     24  O   UNL     1     111.741 124.364 135.843  0.00  0.00    +0.000 OA
ATOM     25  O   UNL     1     112.906 125.030 136.804  0.00  0.00    +0.000 OA
ATOM     26  C   UNL     1     110.894 125.488 136.092  0.00  0.00    +0.000 C 
ATOM     27  C   UNL     1     111.609 125.092 136.208  0.00  0.00    +0.000 C 
ATOM     28  C   UNL     1     110.761 126.216 136.456  0.00  0.00    +0.000 C 
ATOM     29  C   UNL     1     112.191 125.426 136.688  0.00  0.00    +0.000 C 
ATOM     30  C   UNL     1     112.058 126.154 137.053  0.00  0.00    +0.000 C 
BRANCH  28  31
ATOM     31  C   UNL     1     110.046 126.611 136.339  0.00  0.00    +0.000 C 
BRANCH  31  32
ATOM     32  O   UNL     1     110.041 127.423 136.197  0.00  0.00    +0.000 OA
BRANCH  32  34
ATOM     33  O   UNL     1     108.764 127.653 136.795  0.00  0.00    +0.000 OA
ATOM     34  C   UNL     1     109.331 127.843 136.227  0.00  0.00    +0.000 C 
BRANCH  34  35
ATOM     35  C   UNL     1     109.189 128.453 135.691  0.00  0.00    +0.000 C 
BRANCH  35  37
ATOM     36  O   UNL     1     108.126 128.879 135.912  0.00  0.00    +0.000 OA
ATOM     37  C   UNL     1     108.894 129.176 135.956  0.00  0.00    +0.000 C 
ATOM     38  C   UNL     1     109.663 129.473 135.999  0.00  0.00    +0.000 C 
BRANCH  37  39
ATOM     39  C   UNL     1     108.599 129.900 136.221  0.00  0.00    +0.000 C 
BRANCH  39  42
ATOM     40  O   UNL     1     107.409 130.581 135.821  0.00  0.00    +0.000 OA
ATOM     41  O   UNL     1     108.605 130.718 135.049  0.00  0.00    +0.000 OA
ATOM     42  C   UNL     1     108.205 130.400 135.697  0.00  0.00    +0.000 C 
ENDBRANCH  39  42
ENDBRANCH  37  39
ENDBRANCH  35  37
ENDBRANCH  34  35
ENDBRANCH  32  34
ENDBRANCH  31  32
ENDBRANCH  28  31
ENDBRANCH   1  30
TORSDOF 10
ENDMDL
MODEL 5
REMARK VINA RESULT:      -8.9      1.428      2.376
REMARK  Name = 23757216
REMARK  10 active torsions:
REMARK  status: ('A' for Active; 'I' for Inactive)
REMARK    1  A    between atoms: O_3  and  C_20
REMARK    2  A    between atoms: O_3  and  C_22
REMARK    3  A    between atoms: O_6  and  C_21
REMARK    4  A    between atoms: O_6  and  C_25
REMARK    5  A    between atoms: C_18  and  C_21
REMARK    6  A    between atoms: C_23  and  C_24
REMARK    7  A    between atoms: C_23  and  C_28
REMARK    8  A    between atoms: C_24  and  C_25
REMARK    9  A    between atoms: C_26  and  C_32
REMARK   10  A    between atoms: C_28  and  C_34
REMARK                            x       y       z     vdW  Elec       q    Type
REMARK                         _______ _______ _______ _____ _____    ______ ____
ROOT
ATOM      1  O   UNL     1     112.027 126.710 137.376  0.00  0.00    +0.000 OA
ENDROOT
BRANCH   1   6
ATOM      2  O   UNL     1     112.390 126.179 139.462  0.00  0.00    +0.000 OA
ATOM      3  O   UNL     1     110.789 127.507 138.120  0.00  0.00    +0.000 OA
ATOM      4  O   UNL     1     110.060 127.881 139.308  0.00  0.00    +0.000 OA
ATOM      5  O   UNL     1     110.967 126.890 141.901  0.00  0.00    +0.000 OA
ATOM      6  C   UNL     1     111.942 126.666 138.195  0.00  0.00    +0.000 A 
ATOM      7  C   UNL     1     112.476 126.223 138.643  0.00  0.00    +0.000 A 
ATOM      8  C   UNL     1     111.323 127.064 138.568  0.00  0.00    +0.000 A 
ATOM      9  C   UNL     1     111.238 127.020 139.387  0.00  0.00    +0.000 A 
ATOM     10  C   UNL     1     111.771 126.578 139.834  0.00  0.00    +0.000 A 
ATOM     11  C   UNL     1     110.589 127.440 139.763  0.00  0.00    +0.000 A 
ATOM     12  C   UNL     1     111.692 126.524 140.688  0.00  0.00    +0.000 A 
ATOM     13  C   UNL     1     110.494 127.398 140.616  0.00  0.00    +0.000 A 
ATOM     14  C   UNL     1     111.050 126.936 141.082  0.00  0.00    +0.000 A 
BRANCH   7  16
ATOM     15  O   UNL     1     114.952 124.631 137.153  0.00  0.00    +0.000 OA
ATOM     16  C   UNL     1     113.095 125.825 138.270  0.00  0.00    +0.000 A 
ATOM     17  C   UNL     1     112.936 125.173 137.790  0.00  0.00    +0.000 A 
ATOM     18  C   UNL     1     113.873 126.079 138.378  0.00  0.00    +0.000 A 
ATOM     19  C   UNL     1     113.556 124.775 137.418  0.00  0.00    +0.000 A 
ATOM     20  C   UNL     1     114.491 125.681 138.005  0.00  0.00    +0.000 A 
ATOM     21  C   UNL     1     114.333 125.029 137.525  0.00  0.00    +0.000 A 
ENDBRANCH   7  16
ENDBRANCH   1   6
BRANCH   1  30
ATOM     22  O   UNL     1     112.568 128.033 137.369  0.00  0.00    +0.000 OA
ATOM     23  O   UNL     1     112.381 129.646 135.910  0.00  0.00    +0.000 OA
ATOM     24  O   UNL     1     111.477 128.468 135.190  0.00  0.00    +0.000 OA
ATOM     25  O   UNL     1     111.300 127.000 135.923  0.00  0.00    +0.000 OA
ATOM     26  C   UNL     1     112.293 128.911 136.276  0.00  0.00    +0.000 C 
ATOM     27  C   UNL     1     111.840 128.323 135.916  0.00  0.00    +0.000 C 
ATOM     28  C   UNL     1     112.656 128.766 137.003  0.00  0.00    +0.000 C 
ATOM     29  C   UNL     1     111.752 127.588 136.283  0.00  0.00    +0.000 C 
ATOM     30  C   UNL     1     112.116 127.443 137.010  0.00  0.00    +0.000 C 
BRANCH  28  31
ATOM     31  C   UNL     1     113.109 129.356 137.362  0.00  0.00    +0.000 C 
BRANCH  31  32
ATOM     32  O   UNL     1     113.257 129.327 138.172  0.00  0.00    +0.000 OA
BRANCH  32  34
ATOM     33  O   UNL     1     114.332 130.266 138.134  0.00  0.00    +0.000 OA
ATOM     34  C   UNL     1     113.697 129.923 138.534  0.00  0.00    +0.000 C 
BRANCH  34  35
ATOM     35  C   UNL     1     113.503 130.177 139.294  0.00  0.00    +0.000 C 
BRANCH  35  37
ATOM     36  O   UNL     1     114.257 131.035 139.533  0.00  0.00    +0.000 OA
ATOM     37  C   UNL     1     114.097 130.293 139.855  0.00  0.00    +0.000 C 
ATOM     38  C   UNL     1     113.937 129.550 140.177  0.00  0.00    +0.000 C 
BRANCH  37  39
ATOM     39  C   UNL     1     114.690 130.408 140.416  0.00  0.00    +0.000 C 
BRANCH  39  42
ATOM     40  O   UNL     1     115.146 131.608 141.045  0.00  0.00    +0.000 OA
ATOM     41  O   UNL     1     113.970 130.952 141.524  0.00  0.00    +0.000 OA
ATOM     42  C   UNL     1     114.602 130.989 140.995  0.00  0.00    +0.000 C 
ENDBRANCH  39  42
ENDBRANCH  37  39
ENDBRANCH  35  37
ENDBRANCH  34  35
ENDBRANCH  32  34
ENDBRANCH  31  32
ENDBRANCH  28  31
ENDBRANCH   1  30
TORSDOF 10
ENDMDL
MODEL 6
REMARK VINA RESULT:      -8.9      1.510      3.224
REMARK  Name = 23757216
REMARK  10 active torsions:
REMARK  status: ('A' for Active; 'I' for Inactive)
REMARK    1  A    between atoms: O_3  and  C_20
REMARK    2  A    between atoms: O_3  and  C_22
REMARK    3  A    between atoms: O_6  and  C_21
REMARK    4  A    between atoms: O_6  and  C_25
REMARK    5  A    between atoms: C_18  and  C_21
REMARK    6  A    between atoms: C_23  and  C_24
REMARK    7  A    between atoms: C_23  and  C_28
REMARK    8  A    between atoms: C_24  and  C_25
REMARK    9  A    between atoms: C_26  and  C_32
REMARK   10  A    between atoms: C_28  and  C_34
REMARK                            x       y       z     vdW  Elec       q    Type
REMARK                         _______ _______ _______ _____ _____    ______ ____
ROOT
ATOM      1  O   UNL     1     111.722 126.067 139.049  0.00  0.00    +0.000 OA
ENDROOT
BRANCH   1   6
ATOM      2  O   UNL     1     113.821 126.168 138.456  0.00  0.00    +0.000 OA
ATOM      3  O   UNL     1     111.735 125.028 137.767  0.00  0.00    +0.000 OA
ATOM      4  O   UNL     1     112.425 124.350 136.697  0.00  0.00    +0.000 OA
ATOM      5  O   UNL     1     115.280 124.835 136.317  0.00  0.00    +0.000 OA
ATOM      6  C   UNL     1     112.424 125.927 138.638  0.00  0.00    +0.000 A 
ATOM      7  C   UNL     1     113.120 126.307 138.868  0.00  0.00    +0.000 A 
ATOM      8  C   UNL     1     112.431 125.408 137.997  0.00  0.00    +0.000 A 
ATOM      9  C   UNL     1     113.132 125.269 137.586  0.00  0.00    +0.000 A 
ATOM     10  C   UNL     1     113.827 125.649 137.815  0.00  0.00    +0.000 A 
ATOM     11  C   UNL     1     113.125 124.726 136.920  0.00  0.00    +0.000 A 
ATOM     12  C   UNL     1     114.563 125.512 137.395  0.00  0.00    +0.000 A 
ATOM     13  C   UNL     1     113.852 124.576 136.487  0.00  0.00    +0.000 A 
ATOM     14  C   UNL     1     114.577 124.972 136.727  0.00  0.00    +0.000 A 
BRANCH   7  16
ATOM     15  O   UNL     1     113.093 128.385 141.430  0.00  0.00    +0.000 OA
ATOM     16  C   UNL     1     113.113 126.827 139.509  0.00  0.00    +0.000 A 
ATOM     17  C   UNL     1     113.026 126.535 140.276  0.00  0.00    +0.000 A 
ATOM     18  C   UNL     1     113.193 127.639 139.382  0.00  0.00    +0.000 A 
ATOM     19  C   UNL     1     113.020 127.055 140.916  0.00  0.00    +0.000 A 
ATOM     20  C   UNL     1     113.186 128.158 140.023  0.00  0.00    +0.000 A 
ATOM     21  C   UNL     1     113.100 127.866 140.790  0.00  0.00    +0.000 A 
ENDBRANCH   7  16
ENDBRANCH   1   6
BRANCH   1  30
ATOM     22  O   UNL     1     111.148 126.881 138.025  0.00  0.00    +0.000 OA
ATOM     23  O   UNL     1     109.067 127.195 137.447  0.00  0.00    +0.000 OA
ATOM     24  O   UNL     1     108.887 126.130 138.695  0.00  0.00    +0.000 OA
ATOM     25  O   UNL     1     110.215 125.566 139.496  0.00  0.00    +0.000 OA
ATOM     26  C   UNL     1     109.731 126.913 137.848  0.00  0.00    +0.000 C 
ATOM     27  C   UNL     1     109.641 126.381 138.472  0.00  0.00    +0.000 C 
ATOM     28  C   UNL     1     110.485 127.163 137.624  0.00  0.00    +0.000 C 
ATOM     29  C   UNL     1     110.305 126.098 138.872  0.00  0.00    +0.000 C 
ATOM     30  C   UNL     1     111.059 126.349 138.649  0.00  0.00    +0.000 C 
BRANCH  28  31
ATOM     31  C   UNL     1     110.574 127.695 137.000  0.00  0.00    +0.000 C 
BRANCH  31  32
ATOM     32  O   UNL     1     111.253 128.161 136.948  0.00  0.00    +0.000 OA
BRANCH  32  34
ATOM     33  O   UNL     1     110.907 129.078 135.909  0.00  0.00    +0.000 OA
ATOM     34  C   UNL     1     111.439 128.542 136.241  0.00  0.00    +0.000 C 
BRANCH  34  35
ATOM     35  C   UNL     1     112.156 128.388 135.865  0.00  0.00    +0.000 C 
BRANCH  35  37
ATOM     36  O   UNL     1     112.997 128.949 136.448  0.00  0.00    +0.000 OA
ATOM     37  C   UNL     1     112.674 129.007 135.692  0.00  0.00    +0.000 C 
ATOM     38  C   UNL     1     112.350 129.066 134.935  0.00  0.00    +0.000 C 
BRANCH  37  39
ATOM     39  C   UNL     1     113.191 129.626 135.518  0.00  0.00    +0.000 C 
BRANCH  39  42
ATOM     40  O   UNL     1     114.550 129.569 135.954  0.00  0.00    +0.000 OA
ATOM     41  O   UNL     1     114.214 129.208 134.612  0.00  0.00    +0.000 OA
ATOM     42  C   UNL     1     113.985 129.468 135.361  0.00  0.00    +0.000 C 
ENDBRANCH  39  42
ENDBRANCH  37  39
ENDBRANCH  35  37
ENDBRANCH  34  35
ENDBRANCH  32  34
ENDBRANCH  31  32
ENDBRANCH  28  31
ENDBRANCH   1  30
TORSDOF 10
ENDMDL
MODEL 7
REMARK VINA RESULT:      -8.9      1.572      3.480
REMARK  Name = 23757216
REMARK  10 active torsions:
REMARK  status: ('A' for Active; 'I' for Inactive)
REMARK    1  A    between atoms: O_3  and  C_20
REMARK    2  A    between atoms: O_3  and  C_22
REMARK    3  A    between atoms: O_6  and  C_21
REMARK    4  A    between atoms: O_6  and  C_25
REMARK    5  A    between atoms: C_18  and  C_21
REMARK    6  A    between atoms: C_23  and  C_24
REMARK    7  A    between atoms: C_23  and  C_28
REMARK    8  A    between atoms: C_24  and  C_25
REMARK    9  A    between atoms: C_26  and  C_32
REMARK   10  A    between atoms: C_28  and  C_34
REMARK                            x       y       z     vdW  Elec       q    Type
REMARK                         _______ _______ _______ _____ _____    ______ ____
ROOT
ATOM      1  O   UNL     1     112.054 126.210 137.680  0.00  0.00    +0.000 OA
ENDROOT
BRANCH   1   6
ATOM      2  O   UNL     1     113.537 127.423 136.633  0.00  0.00    +0.000 OA
ATOM      3  O   UNL     1     111.222 127.622 137.490  0.00  0.00    +0.000 OA
ATOM      4  O   UNL     1     111.135 128.983 137.020  0.00  0.00    +0.000 OA
ATOM      5  O   UNL     1     113.432 130.166 135.657  0.00  0.00    +0.000 OA
ATOM      6  C   UNL     1     112.409 126.850 137.299  0.00  0.00    +0.000 A 
ATOM      7  C   UNL     1     113.181 126.783 137.013  0.00  0.00    +0.000 A 
ATOM      8  C   UNL     1     111.994 127.556 137.204  0.00  0.00    +0.000 A 
ATOM      9  C   UNL     1     112.350 128.196 136.824  0.00  0.00    +0.000 A 
ATOM     10  C   UNL     1     113.120 128.130 136.538  0.00  0.00    +0.000 A 
ATOM     11  C   UNL     1     111.906 128.926 136.731  0.00  0.00    +0.000 A 
ATOM     12  C   UNL     1     113.501 128.789 136.141  0.00  0.00    +0.000 A 
ATOM     13  C   UNL     1     112.270 129.596 136.336  0.00  0.00    +0.000 A 
ATOM     14  C   UNL     1     113.074 129.527 136.038  0.00  0.00    +0.000 A 
BRANCH   7  16
ATOM     15  O   UNL     1     114.843 123.959 137.396  0.00  0.00    +0.000 OA
ATOM     16  C   UNL     1     113.597 126.077 137.109  0.00  0.00    +0.000 A 
ATOM     17  C   UNL     1     113.414 125.424 136.639  0.00  0.00    +0.000 A 
ATOM     18  C   UNL     1     114.195 126.024 137.675  0.00  0.00    +0.000 A 
ATOM     19  C   UNL     1     113.830 124.718 136.735  0.00  0.00    +0.000 A 
ATOM     20  C   UNL     1     114.610 125.318 137.770  0.00  0.00    +0.000 A 
ATOM     21  C   UNL     1     114.428 124.665 137.300  0.00  0.00    +0.000 A 
ENDBRANCH   7  16
ENDBRANCH   1   6
BRANCH   1  30
ATOM     22  O   UNL     1     112.236 126.746 138.992  0.00  0.00    +0.000 OA
ATOM     23  O   UNL     1     111.059 126.498 140.813  0.00  0.00    +0.000 OA
ATOM     24  O   UNL     1     110.198 125.569 139.756  0.00  0.00    +0.000 OA
ATOM     25  O   UNL     1     110.695 125.425 138.189  0.00  0.00    +0.000 OA
ATOM     26  C   UNL     1     111.308 126.426 140.029  0.00  0.00    +0.000 C 
ATOM     27  C   UNL     1     110.877 125.961 139.501  0.00  0.00    +0.000 C 
ATOM     28  C   UNL     1     111.988 126.818 139.774  0.00  0.00    +0.000 C 
ATOM     29  C   UNL     1     111.126 125.889 138.717  0.00  0.00    +0.000 C 
ATOM     30  C   UNL     1     111.806 126.282 138.462  0.00  0.00    +0.000 C 
BRANCH  28  31
ATOM     31  C   UNL     1     112.418 127.282 140.303  0.00  0.00    +0.000 C 
BRANCH  31  32
ATOM     32  O   UNL     1     112.764 127.986 140.049  0.00  0.00    +0.000 OA
BRANCH  32  34
ATOM     33  O   UNL     1     113.697 128.041 141.130  0.00  0.00    +0.000 OA
ATOM     34  C   UNL     1     113.235 128.426 140.564  0.00  0.00    +0.000 C 
BRANCH  34  35
ATOM     35  C   UNL     1     113.245 129.248 140.515  0.00  0.00    +0.000 C 
BRANCH  35  37
ATOM     36  O   UNL     1     113.776 129.756 141.422  0.00  0.00    +0.000 OA
ATOM     37  C   UNL     1     113.952 129.661 140.622  0.00  0.00    +0.000 C 
ATOM     38  C   UNL     1     114.128 129.565 139.821  0.00  0.00    +0.000 C 
BRANCH  37  39
ATOM     39  C   UNL     1     114.658 130.073 140.728  0.00  0.00    +0.000 C 
BRANCH  39  42
ATOM     40  O   UNL     1     114.719 131.364 141.337  0.00  0.00    +0.000 OA
ATOM     41  O   UNL     1     114.631 131.248 139.915  0.00  0.00    +0.000 OA
ATOM     42  C   UNL     1     114.670 130.895 140.659  0.00  0.00    +0.000 C 
ENDBRANCH  39  42
ENDBRANCH  37  39
ENDBRANCH  35  37
ENDBRANCH  34  35
ENDBRANCH  32  34
ENDBRANCH  31  32
ENDBRANCH  28  31
ENDBRANCH   1  30
TORSDOF 10
ENDMDL
MODEL 8
REMARK VINA RESULT:      -8.8      1.394      4.106
REMARK  Name = 23757216
REMARK  10 active torsions:
REMARK  status: ('A' for Active; 'I' for Inactive)
REMARK    1  A    between atoms: O_3  and  C_20
REMARK    2  A    between atoms: O_3  and  C_22
REMARK    3  A    between atoms: O_6  and  C_21
REMARK    4  A    between atoms: O_6  and  C_25
REMARK    5  A    between atoms: C_18  and  C_21
REMARK    6  A    between atoms: C_23  and  C_24
REMARK    7  A    between atoms: C_23  and  C_28
REMARK    8  A    between atoms: C_24  and  C_25
REMARK    9  A    between atoms: C_26  and  C_32
REMARK   10  A    between atoms: C_28  and  C_34
REMARK                            x       y       z     vdW  Elec       q    Type
REMARK                         _______ _______ _______ _____ _____    ______ ____
ROOT
ATOM      1  O   UNL     1     113.237 127.567 136.204  0.00  0.00    +0.000 OA
ENDROOT
BRANCH   1   6
ATOM      2  O   UNL     1     111.882 125.860 136.067  0.00  0.00    +0.000 OA
ATOM      3  O   UNL     1     112.016 128.209 135.298  0.00  0.00    +0.000 OA
ATOM      4  O   UNL     1     110.741 128.094 134.633  0.00  0.00    +0.000 OA
ATOM      5  O   UNL     1     109.303 125.554 134.749  0.00  0.00    +0.000 OA
ATOM      6  C   UNL     1     112.582 127.105 136.007  0.00  0.00    +0.000 A 
ATOM      7  C   UNL     1     112.537 126.321 136.263  0.00  0.00    +0.000 A 
ATOM      8  C   UNL     1     111.971 127.426 135.554  0.00  0.00    +0.000 A 
ATOM      9  C   UNL     1     111.317 126.964 135.358  0.00  0.00    +0.000 A 
ATOM     10  C   UNL     1     111.272 126.181 135.614  0.00  0.00    +0.000 A 
ATOM     11  C   UNL     1     110.688 127.310 134.885  0.00  0.00    +0.000 A 
ATOM     12  C   UNL     1     110.596 125.690 135.415  0.00  0.00    +0.000 A 
ATOM     13  C   UNL     1     110.003 126.834 134.677  0.00  0.00    +0.000 A 
ATOM     14  C   UNL     1     109.957 126.018 134.944  0.00  0.00    +0.000 A 
BRANCH   7  16
ATOM     15  O   UNL     1     114.980 125.040 138.073  0.00  0.00    +0.000 OA
ATOM     16  C   UNL     1     113.148 126.001 136.716  0.00  0.00    +0.000 A 
ATOM     17  C   UNL     1     113.044 125.885 137.526  0.00  0.00    +0.000 A 
ATOM     18  C   UNL     1     113.863 125.796 136.358  0.00  0.00    +0.000 A 
ATOM     19  C   UNL     1     113.655 125.564 137.978  0.00  0.00    +0.000 A 
ATOM     20  C   UNL     1     114.473 125.476 136.811  0.00  0.00    +0.000 A 
ATOM     21  C   UNL     1     114.370 125.360 137.621  0.00  0.00    +0.000 A 
ENDBRANCH   7  16
ENDBRANCH   1   6
BRANCH   1  30
ATOM     22  O   UNL     1     112.539 128.350 137.174  0.00  0.00    +0.000 OA
ATOM     23  O   UNL     1     112.821 130.419 137.810  0.00  0.00    +0.000 OA
ATOM     24  O   UNL     1     114.007 130.279 136.672  0.00  0.00    +0.000 OA
ATOM     25  O   UNL     1     114.215 128.853 135.869  0.00  0.00    +0.000 OA
ATOM     26  C   UNL     1     112.925 129.706 137.409  0.00  0.00    +0.000 C 
ATOM     27  C   UNL     1     113.518 129.636 136.840  0.00  0.00    +0.000 C 
ATOM     28  C   UNL     1     112.435 129.063 137.576  0.00  0.00    +0.000 C 
ATOM     29  C   UNL     1     113.622 128.922 136.438  0.00  0.00    +0.000 C 
ATOM     30  C   UNL     1     113.133 128.279 136.605  0.00  0.00    +0.000 C 
BRANCH  28  31
ATOM     31  C   UNL     1     111.842 129.134 138.145  0.00  0.00    +0.000 C 
BRANCH  31  32
ATOM     32  O   UNL     1     111.750 128.550 138.720  0.00  0.00    +0.000 OA
BRANCH  32  34
ATOM     33  O   UNL     1     110.327 128.637 138.815  0.00  0.00    +0.000 OA
ATOM     34  C   UNL     1     111.061 128.522 139.174  0.00  0.00    +0.000 C 
BRANCH  34  35
ATOM     35  C   UNL     1     111.106 128.380 139.984  0.00  0.00    +0.000 C 
BRANCH  35  37
ATOM     36  O   UNL     1     111.356 127.253 140.151  0.00  0.00    +0.000 OA
ATOM     37  C   UNL     1     110.708 127.736 140.314  0.00  0.00    +0.000 C 
ATOM     38  C   UNL     1     110.060 128.221 140.477  0.00  0.00    +0.000 C 
BRANCH  37  39
ATOM     39  C   UNL     1     110.310 127.094 140.644  0.00  0.00    +0.000 C 
BRANCH  39  42
ATOM     40  O   UNL     1     110.949 126.049 141.380  0.00  0.00    +0.000 OA
ATOM     41  O   UNL     1     110.428 127.191 142.065  0.00  0.00    +0.000 OA
ATOM     42  C   UNL     1     110.562 126.778 141.363  0.00  0.00    +0.000 C 
ENDBRANCH  39  42
ENDBRANCH  37  39
ENDBRANCH  35  37
ENDBRANCH  34  35
ENDBRANCH  32  34
ENDBRANCH  31  32
ENDBRANCH  28  31
ENDBRANCH   1  30
TORSDOF 10
ENDMDL
MODEL 9
REMARK VINA RESULT:      -8.8      1.274      3.445
REMARK  Name = 23757216
REMARK  10 active torsions:
REMARK  status: ('A' for Active; 'I' for Inactive)
REMARK    1  A    between atoms: O_3  and  C_20
REMARK    2  A    between atoms: O_3  and  C_22
REMARK    3  A    between atoms: O_6  and  C_21
REMARK    4  A    between atoms: O_6  and  C_25
REMARK    5  A    between atoms: C_18  and  C_21
REMARK    6  A    between atoms: C_23  and  C_24
REMARK    7  A    between atoms: C_23  and  C_28
REMARK    8  A    between atoms: C_24  and  C_25
REMARK    9  A    between atoms: C_26  and  C_32
REMARK   10  A    between atoms: C_28  and  C_34
REMARK                            x       y       z     vdW  Elec       q    Type
REMARK                         _______ _______ _______ _____ _____    ______ ____
ROOT
ATOM      1  O   UNL     1     112.290 125.954 138.198  0.00  0.00    +0.000 OA
ENDROOT
BRANCH   1   6
ATOM      2  O   UNL     1     111.818 125.513 136.112  0.00  0.00    +0.000 OA
ATOM      3  O   UNL     1     110.690 126.357 138.149  0.00  0.00    +0.000 OA
ATOM      4  O   UNL     1     109.442 126.490 137.437  0.00  0.00    +0.000 OA
ATOM      5  O   UNL     1     109.334 125.755 134.612  0.00  0.00    +0.000 OA
ATOM      6  C   UNL     1     111.866 125.874 137.495  0.00  0.00    +0.000 A 
ATOM      7  C   UNL     1     112.242 125.592 136.816  0.00  0.00    +0.000 A 
ATOM      8  C   UNL     1     111.066 126.076 137.469  0.00  0.00    +0.000 A 
ATOM      9  C   UNL     1     110.643 125.996 136.766  0.00  0.00    +0.000 A 
ATOM     10  C   UNL     1     111.018 125.715 136.088  0.00  0.00    +0.000 A 
ATOM     11  C   UNL     1     109.810 126.210 136.753  0.00  0.00    +0.000 A 
ATOM     12  C   UNL     1     110.588 125.628 135.350  0.00  0.00    +0.000 A 
ATOM     13  C   UNL     1     109.363 126.129 136.024  0.00  0.00    +0.000 A 
ATOM     14  C   UNL     1     109.755 125.836 135.317  0.00  0.00    +0.000 A 
BRANCH   7  16
ATOM     15  O   UNL     1     115.440 124.788 136.917  0.00  0.00    +0.000 OA
ATOM     16  C   UNL     1     113.041 125.391 136.841  0.00  0.00    +0.000 A 
ATOM     17  C   UNL     1     113.280 124.696 137.216  0.00  0.00    +0.000 A 
ATOM     18  C   UNL     1     113.602 125.885 136.491  0.00  0.00    +0.000 A 
ATOM     19  C   UNL     1     114.080 124.495 137.241  0.00  0.00    +0.000 A 
ATOM     20  C   UNL     1     114.402 125.684 136.517  0.00  0.00    +0.000 A 
ATOM     21  C   UNL     1     114.641 124.989 136.892  0.00  0.00    +0.000 A 
ENDBRANCH   7  16
ENDBRANCH   1   6
BRANCH   1  30
ATOM     22  O   UNL     1     112.431 127.371 138.090  0.00  0.00    +0.000 OA
ATOM     23  O   UNL     1     112.574 128.914 139.627  0.00  0.00    +0.000 OA
ATOM     24  O   UNL     1     112.433 127.559 140.558  0.00  0.00    +0.000 OA
ATOM     25  O   UNL     1     112.291 126.079 139.844  0.00  0.00    +0.000 OA
ATOM     26  C   UNL     1     112.503 128.174 139.270  0.00  0.00    +0.000 C 
ATOM     27  C   UNL     1     112.433 127.497 139.735  0.00  0.00    +0.000 C 
ATOM     28  C   UNL     1     112.502 128.111 138.447  0.00  0.00    +0.000 C 
ATOM     29  C   UNL     1     112.361 126.756 139.378  0.00  0.00    +0.000 C 
ATOM     30  C   UNL     1     112.361 126.693 138.555  0.00  0.00    +0.000 C 
BRANCH  28  31
ATOM     31  C   UNL     1     112.573 128.789 137.982  0.00  0.00    +0.000 C 
BRANCH  31  32
ATOM     32  O   UNL     1     111.985 128.979 137.436  0.00  0.00    +0.000 OA
BRANCH  32  34
ATOM     33  O   UNL     1     112.929 129.473 136.485  0.00  0.00    +0.000 OA
ATOM     34  C   UNL     1     112.161 129.456 136.787  0.00  0.00    +0.000 C 
BRANCH  34  35
ATOM     35  C   UNL     1     111.572 129.917 136.441  0.00  0.00    +0.000 C 
BRANCH  35  37
ATOM     36  O   UNL     1     110.507 129.485 136.241  0.00  0.00    +0.000 OA
ATOM     37  C   UNL     1     111.169 129.641 135.776  0.00  0.00    +0.000 C 
ATOM     38  C   UNL     1     111.833 129.797 135.310  0.00  0.00    +0.000 C 
BRANCH  37  39
ATOM     39  C   UNL     1     110.767 129.365 135.110  0.00  0.00    +0.000 C 
BRANCH  39  42
ATOM     40  O   UNL     1     109.358 129.322 134.876  0.00  0.00    +0.000 OA
ATOM     41  O   UNL     1     110.091 130.521 134.612  0.00  0.00    +0.000 OA
ATOM     42  C   UNL     1     110.072 129.736 134.866  0.00  0.00    +0.000 C 
ENDBRANCH  39  42
ENDBRANCH  37  39
ENDBRANCH  35  37
ENDBRANCH  34  35
ENDBRANCH  32  34
ENDBRANCH  31  32
ENDBRANCH  28  31
ENDBRANCH   1  30
TORSDOF 10
ENDMDL
MODEL 10
REMARK VINA RESULT:      -8.8      1.368      3.684
REMARK  Name = 23757216
REMARK  10 active torsions:
REMARK  status: ('A' for Active; 'I' for Inactive)
REMARK    1  A    between atoms: O_3  and  C_20
REMARK    2  A    between atoms: O_3  and  C_22
REMARK    3  A    between atoms: O_6  and  C_21
REMARK    4  A    between atoms: O_6  and  C_25
REMARK    5  A    between atoms: C_18  and  C_21
REMARK    6  A    between atoms: C_23  and  C_24
REMARK    7  A    between atoms: C_23  and  C_28
REMARK    8  A    between atoms: C_24  and  C_25
REMARK    9  A    between atoms: C_26  and  C_32
REMARK   10  A    between atoms: C_28  and  C_34
REMARK                            x       y       z     vdW  Elec       q    Type
REMARK                         _______ _______ _______ _____ _____    ______ ____
ROOT
ATOM      1  O   UNL     1     111.562 127.107 135.938  0.00  0.00    +0.000 OA
ENDROOT
BRANCH   1   6
ATOM      2  O   UNL     1     113.531 126.775 136.823  0.00  0.00    +0.000 OA
ATOM      3  O   UNL     1     111.607 125.458 135.989  0.00  0.00    +0.000 OA
ATOM      4  O   UNL     1     112.277 124.221 136.311  0.00  0.00    +0.000 OA
ATOM      5  O   UNL     1     114.944 124.320 137.498  0.00  0.00    +0.000 OA
ATOM      6  C   UNL     1     112.226 126.721 136.242  0.00  0.00    +0.000 A 
ATOM      7  C   UNL     1     112.867 127.160 136.520  0.00  0.00    +0.000 A 
ATOM      8  C   UNL     1     112.249 125.897 136.267  0.00  0.00    +0.000 A 
ATOM      9  C   UNL     1     112.912 125.511 136.570  0.00  0.00    +0.000 A 
ATOM     10  C   UNL     1     113.553 125.950 136.848  0.00  0.00    +0.000 A 
ATOM     11  C   UNL     1     112.923 124.652 136.591  0.00  0.00    +0.000 A 
ATOM     12  C   UNL     1     114.249 125.560 137.165  0.00  0.00    +0.000 A 
ATOM     13  C   UNL     1     113.611 124.245 136.905  0.00  0.00    +0.000 A 
ATOM     14  C   UNL     1     114.279 124.702 137.195  0.00  0.00    +0.000 A 
BRANCH   7  16
ATOM     15  O   UNL     1     112.775 130.456 136.415  0.00  0.00    +0.000 OA
ATOM     16  C   UNL     1     112.844 127.984 136.494  0.00  0.00    +0.000 A 
ATOM     17  C   UNL     1     112.734 128.416 137.188  0.00  0.00    +0.000 A 
ATOM     18  C   UNL     1     112.931 128.377 135.773  0.00  0.00    +0.000 A 
ATOM     19  C   UNL     1     112.711 129.241 137.161  0.00  0.00    +0.000 A 
ATOM     20  C   UNL     1     112.908 129.201 135.747  0.00  0.00    +0.000 A 
ATOM     21  C   UNL     1     112.798 129.633 136.442  0.00  0.00    +0.000 A 
ENDBRANCH   7  16
ENDBRANCH   1   6
BRANCH   1  30
ATOM     22  O   UNL     1     110.758 126.800 137.079  0.00  0.00    +0.000 OA
ATOM     23  O   UNL     1     108.595 126.591 137.288  0.00  0.00    +0.000 OA
ATOM     24  O   UNL     1     108.720 126.946 135.681  0.00  0.00    +0.000 OA
ATOM     25  O   UNL     1     110.204 127.203 135.007  0.00  0.00    +0.000 OA
ATOM     26  C   UNL     1     109.337 126.720 136.950  0.00  0.00    +0.000 C 
ATOM     27  C   UNL     1     109.399 126.897 136.147  0.00  0.00    +0.000 C 
ATOM     28  C   UNL     1     110.016 126.672 137.416  0.00  0.00    +0.000 C 
ATOM     29  C   UNL     1     110.142 127.026 135.810  0.00  0.00    +0.000 C 
ATOM     30  C   UNL     1     110.821 126.978 136.276  0.00  0.00    +0.000 C 
BRANCH  28  31
ATOM     31  C   UNL     1     109.953 126.494 138.220  0.00  0.00    +0.000 C 
BRANCH  31  32
ATOM     32  O   UNL     1     110.418 126.896 138.769  0.00  0.00    +0.000 OA
BRANCH  32  34
ATOM     33  O   UNL     1     110.669 125.797 139.648  0.00  0.00    +0.000 OA
ATOM     34  C   UNL     1     110.505 126.598 139.534  0.00  0.00    +0.000 C 
BRANCH  34  35
ATOM     35  C   UNL     1     110.428 127.099 140.184  0.00  0.00    +0.000 C 
BRANCH  35  37
ATOM     36  O   UNL     1     111.477 127.584 140.350  0.00  0.00    +0.000 OA
ATOM     37  C   UNL     1     110.991 127.082 140.787  0.00  0.00    +0.000 C 
ATOM     38  C   UNL     1     110.504 126.580 141.226  0.00  0.00    +0.000 C 
BRANCH  37  39
ATOM     39  C   UNL     1     111.552 127.064 141.392  0.00  0.00    +0.000 C 
BRANCH  39  42
ATOM     40  O   UNL     1     112.240 128.225 141.861  0.00  0.00    +0.000 OA
ATOM     41  O   UNL     1     111.036 127.800 142.503  0.00  0.00    +0.000 OA
ATOM     42  C   UNL     1     111.609 127.696 141.918  0.00  0.00    +0.000 C 
ENDBRANCH  39  42
ENDBRANCH  37  39
ENDBRANCH  35  37
ENDBRANCH  34  35
ENDBRANCH  32  34
ENDBRANCH  31  32
ENDBRANCH  28  31
ENDBRANCH   1  30
TORSDOF 10
ENDMDL
