MODEL 1
REMARK VINA RESULT:      -8.5      0.000      0.000
REMARK  Name = 26213325
REMARK  2 active torsions:
REMARK  status: ('A' for Active; 'I' for Inactive)
REMARK    1  A    between atoms: O_5  and  C_17
REMARK    2  A    between atoms: C_7  and  C_10
REMARK                            x       y       z     vdW  Elec       q    Type
REMARK                         _______ _______ _______ _____ _____    ______ ____
ROOT
ATOM      1  O   UNL     1     106.657 125.072 146.589  0.00  0.00    +0.000 OA
ATOM      2  O   UNL     1     106.685 127.601 146.483  0.00  0.00    +0.000 OA
ATOM      3  O   UNL     1     106.196 127.527 145.127  0.00  0.00    +0.000 OA
ATOM      4  O   UNL     1     106.155 124.230 145.254  0.00  0.00    +0.000 OA
ATOM      5  C   UNL     1     106.915 125.519 147.276  0.00  0.00    +0.000 C 
ATOM      6  C   UNL     1     106.926 126.377 147.243  0.00  0.00    +0.000 C 
ATOM      7  C   UNL     1     106.423 126.313 145.847  0.00  0.00    +0.000 A 
ATOM      8  C   UNL     1     106.412 125.489 145.879  0.00  0.00    +0.000 A 
ATOM      9  C   UNL     1     106.678 126.777 146.523  0.00  0.00    +0.000 C 
ATOM     10  C   UNL     1     106.186 126.703 145.159  0.00  0.00    +0.000 A 
ATOM     11  C   UNL     1     106.165 125.054 145.222  0.00  0.00    +0.000 A 
ATOM     12  C   UNL     1     105.928 125.443 144.535  0.00  0.00    +0.000 A 
ATOM     13  C   UNL     1     105.939 126.267 144.504  0.00  0.00    +0.000 A 
ENDROOT
BRANCH   5  15
ATOM     14  O   UNL     1     108.516 125.232 147.552  0.00  0.00    +0.000 OA
ATOM     15  C   UNL     1     107.152 125.127 147.962  0.00  0.00    +0.000 A 
ATOM     16  C   UNL     1     107.952 124.984 148.100  0.00  0.00    +0.000 A 
ATOM     17  C   UNL     1     106.587 124.879 148.511  0.00  0.00    +0.000 A 
ATOM     18  C   UNL     1     108.189 124.592 148.786  0.00  0.00    +0.000 A 
ATOM     19  C   UNL     1     106.825 124.487 149.197  0.00  0.00    +0.000 A 
ATOM     20  C   UNL     1     107.625 124.343 149.335  0.00  0.00    +0.000 A 
ENDBRANCH   5  15
BRANCH  12  21
ATOM     21  O   UNL     1     105.681 125.008 143.879  0.00  0.00    +0.000 OA
ATOM     22  C   UNL     1     105.861 125.271 143.118  0.00  0.00    +0.000 C 
ENDBRANCH  12  21
TORSDOF 2
ENDMDL
MODEL 2
REMARK VINA RESULT:      -8.5      2.227      3.979
REMARK  Name = 26213325
REMARK  2 active torsions:
REMARK  status: ('A' for Active; 'I' for Inactive)
REMARK    1  A    between atoms: O_5  and  C_17
REMARK    2  A    between atoms: C_7  and  C_10
REMARK                            x       y       z     vdW  Elec       q    Type
REMARK                         _______ _______ _______ _____ _____    ______ ____
ROOT
ATOM      1  O   UNL     1     105.031 124.334 147.370  0.00  0.00    +0.000 OA
ATOM      2  O   UNL     1     106.307 125.361 145.440  0.00  0.00    +0.000 OA
ATOM      3  O   UNL     1     107.429 125.571 146.323  0.00  0.00    +0.000 OA
ATOM      4  O   UNL     1     105.775 124.234 148.846  0.00  0.00    +0.000 OA
ATOM      5  C   UNL     1     104.654 124.391 146.599  0.00  0.00    +0.000 C 
ATOM      6  C   UNL     1     105.085 124.739 145.943  0.00  0.00    +0.000 C 
ATOM      7  C   UNL     1     106.245 124.960 146.843  0.00  0.00    +0.000 A 
ATOM      8  C   UNL     1     105.832 124.626 147.473  0.00  0.00    +0.000 A 
ATOM      9  C   UNL     1     105.886 125.025 146.065  0.00  0.00    +0.000 C 
ATOM     10  C   UNL     1     107.015 125.237 146.954  0.00  0.00    +0.000 A 
ATOM     11  C   UNL     1     106.188 124.568 148.215  0.00  0.00    +0.000 A 
ATOM     12  C   UNL     1     106.957 124.845 148.327  0.00  0.00    +0.000 A 
ATOM     13  C   UNL     1     107.370 125.179 147.696  0.00  0.00    +0.000 A 
ENDROOT
BRANCH   5  15
ATOM     14  O   UNL     1     104.399 122.932 145.872  0.00  0.00    +0.000 OA
ATOM     15  C   UNL     1     103.885 124.113 146.491  0.00  0.00    +0.000 A 
ATOM     16  C   UNL     1     103.758 123.384 146.127  0.00  0.00    +0.000 A 
ATOM     17  C   UNL     1     103.244 124.565 146.746  0.00  0.00    +0.000 A 
ATOM     18  C   UNL     1     102.989 123.106 146.018  0.00  0.00    +0.000 A 
ATOM     19  C   UNL     1     102.474 124.286 146.637  0.00  0.00    +0.000 A 
ATOM     20  C   UNL     1     102.347 123.557 146.273  0.00  0.00    +0.000 A 
ENDBRANCH   5  15
BRANCH  12  21
ATOM     21  O   UNL     1     107.313 124.788 149.069  0.00  0.00    +0.000 OA
ATOM     22  C   UNL     1     108.101 124.554 149.132  0.00  0.00    +0.000 C 
ENDBRANCH  12  21
TORSDOF 2
ENDMDL
MODEL 3
REMARK VINA RESULT:      -8.4      2.505      2.910
REMARK  Name = 26213325
REMARK  2 active torsions:
REMARK  status: ('A' for Active; 'I' for Inactive)
REMARK    1  A    between atoms: O_5  and  C_17
REMARK    2  A    between atoms: C_7  and  C_10
REMARK                            x       y       z     vdW  Elec       q    Type
REMARK                         _______ _______ _______ _____ _____    ______ ____
ROOT
ATOM      1  O   UNL     1     105.384 124.347 147.164  0.00  0.00    +0.000 OA
ATOM      2  O   UNL     1     103.787 125.849 148.431  0.00  0.00    +0.000 OA
ATOM      3  O   UNL     1     102.696 125.296 147.665  0.00  0.00    +0.000 OA
ATOM      4  O   UNL     1     104.768 123.334 146.008  0.00  0.00    +0.000 OA
ATOM      5  C   UNL     1     105.692 124.877 147.767  0.00  0.00    +0.000 C 
ATOM      6  C   UNL     1     105.153 125.388 148.198  0.00  0.00    +0.000 C 
ATOM      7  C   UNL     1     104.022 124.826 147.416  0.00  0.00    +0.000 A 
ATOM      8  C   UNL     1     104.540 124.335 147.002  0.00  0.00    +0.000 A 
ATOM      9  C   UNL     1     104.312 125.362 148.021  0.00  0.00    +0.000 C 
ATOM     10  C   UNL     1     103.214 124.806 147.251  0.00  0.00    +0.000 A 
ATOM     11  C   UNL     1     104.250 123.824 146.423  0.00  0.00    +0.000 A 
ATOM     12  C   UNL     1     103.442 123.804 146.258  0.00  0.00    +0.000 A 
ATOM     13  C   UNL     1     102.924 124.295 146.672  0.00  0.00    +0.000 A 
ENDROOT
BRANCH   5  15
ATOM     14  O   UNL     1     106.285 124.086 149.088  0.00  0.00    +0.000 OA
ATOM     15  C   UNL     1     106.501 124.895 147.930  0.00  0.00    +0.000 A 
ATOM     16  C   UNL     1     106.797 124.499 148.590  0.00  0.00    +0.000 A 
ATOM     17  C   UNL     1     107.013 125.308 147.432  0.00  0.00    +0.000 A 
ATOM     18  C   UNL     1     107.605 124.517 148.754  0.00  0.00    +0.000 A 
ATOM     19  C   UNL     1     107.822 125.326 147.596  0.00  0.00    +0.000 A 
ATOM     20  C   UNL     1     108.118 124.931 148.257  0.00  0.00    +0.000 A 
ENDBRANCH   5  15
BRANCH  12  21
ATOM     21  O   UNL     1     103.151 123.293 145.678  0.00  0.00    +0.000 OA
ATOM     22  C   UNL     1     102.357 123.072 145.684  0.00  0.00    +0.000 C 
ENDBRANCH  12  21
TORSDOF 2
ENDMDL
MODEL 4
REMARK VINA RESULT:      -8.2      5.982      8.404
REMARK  Name = 26213325
REMARK  2 active torsions:
REMARK  status: ('A' for Active; 'I' for Inactive)
REMARK    1  A    between atoms: O_5  and  C_17
REMARK    2  A    between atoms: C_7  and  C_10
REMARK                            x       y       z     vdW  Elec       q    Type
REMARK                         _______ _______ _______ _____ _____    ______ ____
ROOT
ATOM      1  O   UNL     1     102.890 130.486 142.160  0.00  0.00    +0.000 OA
ATOM      2  O   UNL     1     102.747 129.306 139.925  0.00  0.00    +0.000 OA
ATOM      3  O   UNL     1     103.710 128.340 140.399  0.00  0.00    +0.000 OA
ATOM      4  O   UNL     1     103.904 129.871 143.316  0.00  0.00    +0.000 OA
ATOM      5  C   UNL     1     102.367 130.796 141.552  0.00  0.00    +0.000 C 
ATOM      6  C   UNL     1     102.316 130.398 140.793  0.00  0.00    +0.000 C 
ATOM      7  C   UNL     1     103.306 129.399 141.270  0.00  0.00    +0.000 A 
ATOM      8  C   UNL     1     103.355 129.782 142.000  0.00  0.00    +0.000 A 
ATOM      9  C   UNL     1     102.790 129.694 140.651  0.00  0.00    +0.000 C 
ATOM     10  C   UNL     1     103.758 128.723 141.128  0.00  0.00    +0.000 A 
ATOM     11  C   UNL     1     103.855 129.488 142.587  0.00  0.00    +0.000 A 
ATOM     12  C   UNL     1     104.307 128.813 142.445  0.00  0.00    +0.000 A 
ATOM     13  C   UNL     1     104.258 128.431 141.715  0.00  0.00    +0.000 A 
ENDROOT
BRANCH   5  15
ATOM     14  O   UNL     1     102.977 132.287 141.195  0.00  0.00    +0.000 OA
ATOM     15  C   UNL     1     101.916 131.472 141.697  0.00  0.00    +0.000 A 
ATOM     16  C   UNL     1     102.222 132.217 141.519  0.00  0.00    +0.000 A 
ATOM     17  C   UNL     1     101.161 131.403 142.021  0.00  0.00    +0.000 A 
ATOM     18  C   UNL     1     101.772 132.893 141.663  0.00  0.00    +0.000 A 
ATOM     19  C   UNL     1     100.710 132.079 142.166  0.00  0.00    +0.000 A 
ATOM     20  C   UNL     1     101.016 132.825 141.987  0.00  0.00    +0.000 A 
ENDBRANCH   5  15
BRANCH  12  21
ATOM     21  O   UNL     1     104.807 128.520 143.032  0.00  0.00    +0.000 OA
ATOM     22  C   UNL     1     105.286 127.867 142.877  0.00  0.00    +0.000 C 
ENDBRANCH  12  21
TORSDOF 2
ENDMDL
MODEL 5
REMARK VINA RESULT:      -8.2     11.000     11.864
REMARK  Name = 26213325
REMARK  2 active torsions:
REMARK  status: ('A' for Active; 'I' for Inactive)
REMARK    1  A    between atoms: O_5  and  C_17
REMARK    2  A    between atoms: C_7  and  C_10
REMARK                            x       y       z     vdW  Elec       q    Type
REMARK                         _______ _______ _______ _____ _____    ______ ____
ROOT
ATOM      1  O   UNL     1     112.419 126.494 136.160  0.00  0.00    +0.000 OA
ATOM      2  O   UNL     1     110.726 124.675 135.674  0.00  0.00    +0.000 OA
ATOM      3  O   UNL     1     109.897 125.656 135.015  0.00  0.00    +0.000 OA
ATOM      4  O   UNL     1     112.097 128.034 135.644  0.00  0.00    +0.000 OA
ATOM      5  C   UNL     1     112.576 125.691 136.424  0.00  0.00    +0.000 C 
ATOM      6  C   UNL     1     112.004 125.072 136.260  0.00  0.00    +0.000 C 
ATOM      7  C   UNL     1     111.142 126.072 135.580  0.00  0.00    +0.000 A 
ATOM      8  C   UNL     1     111.692 126.667 135.737  0.00  0.00    +0.000 A 
ATOM      9  C   UNL     1     111.281 125.264 135.835  0.00  0.00    +0.000 C 
ATOM     10  C   UNL     1     110.447 126.250 135.172  0.00  0.00    +0.000 A 
ATOM     11  C   UNL     1     111.547 127.439 135.487  0.00  0.00    +0.000 A 
ATOM     12  C   UNL     1     110.852 127.617 135.080  0.00  0.00    +0.000 A 
ATOM     13  C   UNL     1     110.302 127.023 134.922  0.00  0.00    +0.000 A 
ENDROOT
BRANCH   5  15
ATOM     14  O   UNL     1     112.632 125.843 138.066  0.00  0.00    +0.000 OA
ATOM     15  C   UNL     1     113.272 125.515 136.831  0.00  0.00    +0.000 A 
ATOM     16  C   UNL     1     113.300 125.592 137.652  0.00  0.00    +0.000 A 
ATOM     17  C   UNL     1     113.940 125.264 136.417  0.00  0.00    +0.000 A 
ATOM     18  C   UNL     1     113.995 125.417 138.059  0.00  0.00    +0.000 A 
ATOM     19  C   UNL     1     114.636 125.089 136.825  0.00  0.00    +0.000 A 
ATOM     20  C   UNL     1     114.664 125.165 137.646  0.00  0.00    +0.000 A 
ENDBRANCH   5  15
BRANCH  12  21
ATOM     21  O   UNL     1     110.707 128.390 134.829  0.00  0.00    +0.000 OA
ATOM     22  C   UNL     1     109.937 128.630 134.656  0.00  0.00    +0.000 C 
ENDBRANCH  12  21
TORSDOF 2
ENDMDL
MODEL 6
REMARK VINA RESULT:      -8.1      5.867      8.630
REMARK  Name = 26213325
REMARK  2 active torsions:
REMARK  status: ('A' for Active; 'I' for Inactive)
REMARK    1  A    between atoms: O_5  and  C_17
REMARK    2  A    between atoms: C_7  and  C_10
REMARK                            x       y       z     vdW  Elec       q    Type
REMARK                         _______ _______ _______ _____ _____    ______ ____
ROOT
ATOM      1  O   UNL     1     104.638 123.573 138.918  0.00  0.00    +0.000 OA
ATOM      2  O   UNL     1     104.246 126.017 139.451  0.00  0.00    +0.000 OA
ATOM      3  O   UNL     1     105.240 125.925 140.493  0.00  0.00    +0.000 OA
ATOM      4  O   UNL     1     105.759 122.739 139.806  0.00  0.00    +0.000 OA
ATOM      5  C   UNL     1     104.058 124.016 138.462  0.00  0.00    +0.000 C 
ATOM      6  C   UNL     1     103.923 124.845 138.641  0.00  0.00    +0.000 C 
ATOM      7  C   UNL     1     104.944 124.762 139.716  0.00  0.00    +0.000 A 
ATOM      8  C   UNL     1     105.074 123.966 139.545  0.00  0.00    +0.000 A 
ATOM      9  C   UNL     1     104.370 125.221 139.273  0.00  0.00    +0.000 C 
ATOM     10  C   UNL     1     105.370 125.128 140.322  0.00  0.00    +0.000 A 
ATOM     11  C   UNL     1     105.629 123.536 139.978  0.00  0.00    +0.000 A 
ATOM     12  C   UNL     1     106.054 123.901 140.583  0.00  0.00    +0.000 A 
ATOM     13  C   UNL     1     105.924 124.698 140.754  0.00  0.00    +0.000 A 
ENDROOT
BRANCH   5  15
ATOM     14  O   UNL     1     102.472 123.620 138.690  0.00  0.00    +0.000 OA
ATOM     15  C   UNL     1     103.634 123.648 137.858  0.00  0.00    +0.000 A 
ATOM     16  C   UNL     1     102.842 123.450 137.972  0.00  0.00    +0.000 A 
ATOM     17  C   UNL     1     104.003 123.477 137.140  0.00  0.00    +0.000 A 
ATOM     18  C   UNL     1     102.418 123.082 137.368  0.00  0.00    +0.000 A 
ATOM     19  C   UNL     1     103.579 123.108 136.536  0.00  0.00    +0.000 A 
ATOM     20  C   UNL     1     102.786 122.910 136.650  0.00  0.00    +0.000 A 
ENDBRANCH   5  15
BRANCH  12  21
ATOM     21  O   UNL     1     106.609 123.471 141.016  0.00  0.00    +0.000 OA
ATOM     22  C   UNL     1     107.281 123.845 141.313  0.00  0.00    +0.000 C 
ENDBRANCH  12  21
TORSDOF 2
ENDMDL
MODEL 7
REMARK VINA RESULT:      -7.9      9.573     11.648
REMARK  Name = 26213325
REMARK  2 active torsions:
REMARK  status: ('A' for Active; 'I' for Inactive)
REMARK    1  A    between atoms: O_5  and  C_17
REMARK    2  A    between atoms: C_7  and  C_10
REMARK                            x       y       z     vdW  Elec       q    Type
REMARK                         _______ _______ _______ _____ _____    ______ ____
ROOT
ATOM      1  O   UNL     1     111.920 126.288 137.124  0.00  0.00    +0.000 OA
ATOM      2  O   UNL     1     114.061 125.070 136.538  0.00  0.00    +0.000 OA
ATOM      3  O   UNL     1     114.568 125.377 137.854  0.00  0.00    +0.000 OA
ATOM      4  O   UNL     1     111.783 126.968 138.628  0.00  0.00    +0.000 OA
ATOM      5  C   UNL     1     112.002 125.931 136.346  0.00  0.00    +0.000 C 
ATOM      6  C   UNL     1     112.727 125.517 136.144  0.00  0.00    +0.000 C 
ATOM      7  C   UNL     1     113.260 125.828 137.495  0.00  0.00    +0.000 A 
ATOM      8  C   UNL     1     112.564 126.226 137.689  0.00  0.00    +0.000 A 
ATOM      9  C   UNL     1     113.361 125.465 136.723  0.00  0.00    +0.000 C 
ATOM     10  C   UNL     1     113.872 125.775 138.047  0.00  0.00    +0.000 A 
ATOM     11  C   UNL     1     112.479 126.570 138.434  0.00  0.00    +0.000 A 
ATOM     12  C   UNL     1     113.090 126.517 138.985  0.00  0.00    +0.000 A 
ATOM     13  C   UNL     1     113.786 126.119 138.792  0.00  0.00    +0.000 A 
ENDROOT
BRANCH   5  15
ATOM     14  O   UNL     1     110.949 124.675 136.157  0.00  0.00    +0.000 OA
ATOM     15  C   UNL     1     111.389 125.986 135.796  0.00  0.00    +0.000 A 
ATOM     16  C   UNL     1     110.863 125.358 135.702  0.00  0.00    +0.000 A 
ATOM     17  C   UNL     1     111.303 126.669 135.341  0.00  0.00    +0.000 A 
ATOM     18  C   UNL     1     110.250 125.412 135.153  0.00  0.00    +0.000 A 
ATOM     19  C   UNL     1     110.689 126.723 134.792  0.00  0.00    +0.000 A 
ATOM     20  C   UNL     1     110.163 126.095 134.697  0.00  0.00    +0.000 A 
ENDBRANCH   5  15
BRANCH  12  21
ATOM     21  O   UNL     1     113.005 126.861 139.730  0.00  0.00    +0.000 OA
ATOM     22  C   UNL     1     113.649 126.896 140.245  0.00  0.00    +0.000 C 
ENDBRANCH  12  21
TORSDOF 2
ENDMDL
MODEL 8
REMARK VINA RESULT:      -7.9      1.092      4.059
REMARK  Name = 26213325
REMARK  2 active torsions:
REMARK  status: ('A' for Active; 'I' for Inactive)
REMARK    1  A    between atoms: O_5  and  C_17
REMARK    2  A    between atoms: C_7  and  C_10
REMARK                            x       y       z     vdW  Elec       q    Type
REMARK                         _______ _______ _______ _____ _____    ______ ____
ROOT
ATOM      1  O   UNL     1     106.640 125.379 146.327  0.00  0.00    +0.000 OA
ATOM      2  O   UNL     1     104.432 124.750 147.394  0.00  0.00    +0.000 OA
ATOM      3  O   UNL     1     105.133 124.461 148.622  0.00  0.00    +0.000 OA
ATOM      4  O   UNL     1     108.017 125.278 147.241  0.00  0.00    +0.000 OA
ATOM      5  C   UNL     1     105.919 125.428 145.862  0.00  0.00    +0.000 C 
ATOM      6  C   UNL     1     105.168 125.215 146.221  0.00  0.00    +0.000 C 
ATOM      7  C   UNL     1     105.880 124.914 147.490  0.00  0.00    +0.000 A 
ATOM      8  C   UNL     1     106.601 125.119 147.145  0.00  0.00    +0.000 A 
ATOM      9  C   UNL     1     105.149 124.956 147.041  0.00  0.00    +0.000 C 
ATOM     10  C   UNL     1     105.854 124.665 148.277  0.00  0.00    +0.000 A 
ATOM     11  C   UNL     1     107.296 125.074 147.586  0.00  0.00    +0.000 A 
ATOM     12  C   UNL     1     107.271 124.825 148.372  0.00  0.00    +0.000 A 
ATOM     13  C   UNL     1     106.550 124.621 148.717  0.00  0.00    +0.000 A 
ENDROOT
BRANCH   5  15
ATOM     14  O   UNL     1     106.079 124.319 144.651  0.00  0.00    +0.000 OA
ATOM     15  C   UNL     1     105.947 125.677 145.076  0.00  0.00    +0.000 A 
ATOM     16  C   UNL     1     106.027 125.123 144.470  0.00  0.00    +0.000 A 
ATOM     17  C   UNL     1     105.895 126.481 144.896  0.00  0.00    +0.000 A 
ATOM     18  C   UNL     1     106.055 125.371 143.685  0.00  0.00    +0.000 A 
ATOM     19  C   UNL     1     105.923 126.729 144.109  0.00  0.00    +0.000 A 
ATOM     20  C   UNL     1     106.003 126.175 143.504  0.00  0.00    +0.000 A 
ENDBRANCH   5  15
BRANCH  12  21
ATOM     21  O   UNL     1     107.967 124.781 148.814  0.00  0.00    +0.000 OA
ATOM     22  C   UNL     1     107.969 124.397 149.543  0.00  0.00    +0.000 C 
ENDBRANCH  12  21
TORSDOF 2
ENDMDL
MODEL 9
REMARK VINA RESULT:      -7.9     11.169     11.739
REMARK  Name = 26213325
REMARK  2 active torsions:
REMARK  status: ('A' for Active; 'I' for Inactive)
REMARK    1  A    between atoms: O_5  and  C_17
REMARK    2  A    between atoms: C_7  and  C_10
REMARK                            x       y       z     vdW  Elec       q    Type
REMARK                         _______ _______ _______ _____ _____    ______ ____
ROOT
ATOM      1  O   UNL     1     112.277 125.673 136.207  0.00  0.00    +0.000 OA
ATOM      2  O   UNL     1     112.292 128.196 135.996  0.00  0.00    +0.000 OA
ATOM      3  O   UNL     1     110.986 128.130 135.384  0.00  0.00    +0.000 OA
ATOM      4  O   UNL     1     110.956 124.841 135.653  0.00  0.00    +0.000 OA
ATOM      5  C   UNL     1     112.957 126.115 136.491  0.00  0.00    +0.000 C 
ATOM      6  C   UNL     1     112.965 126.972 136.421  0.00  0.00    +0.000 C 
ATOM      7  C   UNL     1     111.622 126.915 135.790  0.00  0.00    +0.000 A 
ATOM      8  C   UNL     1     111.614 126.093 135.857  0.00  0.00    +0.000 A 
ATOM      9  C   UNL     1     112.292 127.374 136.068  0.00  0.00    +0.000 C 
ATOM     10  C   UNL     1     110.979 127.308 135.451  0.00  0.00    +0.000 A 
ATOM     11  C   UNL     1     110.964 125.663 135.586  0.00  0.00    +0.000 A 
ATOM     12  C   UNL     1     110.322 126.055 135.248  0.00  0.00    +0.000 A 
ATOM     13  C   UNL     1     110.329 126.877 135.181  0.00  0.00    +0.000 A 
ENDROOT
BRANCH   5  15
ATOM     14  O   UNL     1     113.037 125.921 138.128  0.00  0.00    +0.000 OA
ATOM     15  C   UNL     1     113.598 125.721 136.829  0.00  0.00    +0.000 A 
ATOM     16  C   UNL     1     113.638 125.624 137.647  0.00  0.00    +0.000 A 
ATOM     17  C   UNL     1     114.199 125.423 136.348  0.00  0.00    +0.000 A 
ATOM     18  C   UNL     1     114.278 125.230 137.985  0.00  0.00    +0.000 A 
ATOM     19  C   UNL     1     114.840 125.029 136.687  0.00  0.00    +0.000 A 
ATOM     20  C   UNL     1     114.880 124.931 137.505  0.00  0.00    +0.000 A 
ENDBRANCH   5  15
BRANCH  12  21
ATOM     21  O   UNL     1     109.672 125.625 134.977  0.00  0.00    +0.000 OA
ATOM     22  C   UNL     1     108.942 125.997 134.880  0.00  0.00    +0.000 C 
ENDBRANCH  12  21
TORSDOF 2
ENDMDL
MODEL 10
REMARK VINA RESULT:      -7.9      0.847      1.968
REMARK  Name = 26213325
REMARK  2 active torsions:
REMARK  status: ('A' for Active; 'I' for Inactive)
REMARK    1  A    between atoms: O_5  and  C_17
REMARK    2  A    between atoms: C_7  and  C_10
REMARK                            x       y       z     vdW  Elec       q    Type
REMARK                         _______ _______ _______ _____ _____    ______ ____
ROOT
ATOM      1  O   UNL     1     106.495 126.175 147.192  0.00  0.00    +0.000 OA
ATOM      2  O   UNL     1     106.098 124.686 145.183  0.00  0.00    +0.000 OA
ATOM      3  O   UNL     1     105.554 125.822 144.478  0.00  0.00    +0.000 OA
ATOM      4  O   UNL     1     106.067 127.771 147.090  0.00  0.00    +0.000 OA
ATOM      5  C   UNL     1     106.713 125.344 147.234  0.00  0.00    +0.000 C 
ATOM      6  C   UNL     1     106.579 124.837 146.554  0.00  0.00    +0.000 C 
ATOM      7  C   UNL     1     106.018 125.999 145.818  0.00  0.00    +0.000 A 
ATOM      8  C   UNL     1     106.147 126.486 146.472  0.00  0.00    +0.000 A 
ATOM      9  C   UNL     1     106.229 125.166 145.841  0.00  0.00    +0.000 C 
ATOM     10  C   UNL     1     105.682 126.309 145.131  0.00  0.00    +0.000 A 
ATOM     11  C   UNL     1     105.939 127.284 146.437  0.00  0.00    +0.000 A 
ATOM     12  C   UNL     1     105.604 127.594 145.751  0.00  0.00    +0.000 A 
ATOM     13  C   UNL     1     105.475 127.107 145.098  0.00  0.00    +0.000 A 
ENDROOT
BRANCH   5  15
ATOM     14  O   UNL     1     108.353 125.330 147.417  0.00  0.00    +0.000 OA
ATOM     15  C   UNL     1     107.048 125.036 147.922  0.00  0.00    +0.000 A 
ATOM     16  C   UNL     1     107.868 125.029 148.014  0.00  0.00    +0.000 A 
ATOM     17  C   UNL     1     106.564 124.736 148.518  0.00  0.00    +0.000 A 
ATOM     18  C   UNL     1     108.204 124.722 148.701  0.00  0.00    +0.000 A 
ATOM     19  C   UNL     1     106.900 124.428 149.206  0.00  0.00    +0.000 A 
ATOM     20  C   UNL     1     107.720 124.421 149.298  0.00  0.00    +0.000 A 
ENDBRANCH   5  15
BRANCH  12  21
ATOM     21  O   UNL     1     105.396 128.392 145.717  0.00  0.00    +0.000 OA
ATOM     22  C   UNL     1     105.208 128.739 144.993  0.00  0.00    +0.000 C 
ENDBRANCH  12  21
TORSDOF 2
ENDMDL
