MODEL 1
REMARK VINA RESULT:     -10.1      0.000      0.000
REMARK  Name = 44259547
REMARK  7 active torsions:
REMARK  status: ('A' for Active; 'I' for Inactive)
REMARK    1  A    between atoms: O_2  and  C_21
REMARK    2  A    between atoms: O_2  and  C_25
REMARK    3  A    between atoms: O_6  and  C_24
REMARK    4  A    between atoms: O_6  and  C_28
REMARK    5  A    between atoms: O_14  and  C_39
REMARK    6  A    between atoms: C_16  and  C_25
REMARK    7  A    between atoms: C_29  and  C_33
REMARK                            x       y       z     vdW  Elec       q    Type
REMARK                         _______ _______ _______ _____ _____    ______ ____
ROOT
ATOM      1  O   UNL     1     112.794 126.361 137.635  0.00  0.00    +0.000 OA
ENDROOT
BRANCH   1   5
ATOM      2  O   UNL     1     112.983 128.451 138.235  0.00  0.00    +0.000 OA
ATOM      3  O   UNL     1     113.459 127.016 136.275  0.00  0.00    +0.000 OA
ATOM      4  O   UNL     1     113.975 128.143 135.538  0.00  0.00    +0.000 OA
ATOM      5  C   UNL     1     112.968 127.166 137.608  0.00  0.00    +0.000 A 
ATOM      6  C   UNL     1     112.809 127.644 138.261  0.00  0.00    +0.000 A 
ATOM      7  C   UNL     1     113.300 127.494 136.928  0.00  0.00    +0.000 A 
ATOM      8  C   UNL     1     113.474 128.300 136.901  0.00  0.00    +0.000 A 
ATOM      9  C   UNL     1     113.315 128.778 137.554  0.00  0.00    +0.000 A 
ATOM     10  C   UNL     1     113.820 128.630 136.186  0.00  0.00    +0.000 A 
ATOM     11  C   UNL     1     113.492 129.619 137.538  0.00  0.00    +0.000 A 
ATOM     12  C   UNL     1     114.003 129.468 136.152  0.00  0.00    +0.000 A 
ATOM     13  C   UNL     1     113.838 129.966 136.833  0.00  0.00    +0.000 A 
BRANCH   6  15
ATOM     14  O   UNL     1     111.477 126.337 140.983  0.00  0.00    +0.000 OA
ATOM     15  C   UNL     1     112.477 127.317 138.942  0.00  0.00    +0.000 A 
ATOM     16  C   UNL     1     111.680 127.446 139.114  0.00  0.00    +0.000 A 
ATOM     17  C   UNL     1     112.941 126.862 139.450  0.00  0.00    +0.000 A 
ATOM     18  C   UNL     1     111.347 127.119 139.794  0.00  0.00    +0.000 A 
ATOM     19  C   UNL     1     112.607 126.536 140.131  0.00  0.00    +0.000 A 
ATOM     20  C   UNL     1     111.811 126.664 140.303  0.00  0.00    +0.000 A 
ENDBRANCH   6  15
BRANCH  13  21
ATOM     21  O   UNL     1     114.011 130.773 136.809  0.00  0.00    +0.000 OA
ATOM     22  C   UNL     1     113.398 131.326 136.816  0.00  0.00    +0.000 C 
ENDBRANCH  13  21
ENDBRANCH   1   5
BRANCH   1  31
ATOM     23  O   UNL     1     111.694 126.506 136.734  0.00  0.00    +0.000 OA
ATOM     24  O   UNL     1     110.699 125.051 135.448  0.00  0.00    +0.000 OA
ATOM     25  O   UNL     1     111.851 124.105 136.156  0.00  0.00    +0.000 OA
ATOM     26  O   UNL     1     112.898 124.760 137.250  0.00  0.00    +0.000 OA
ATOM     27  C   UNL     1     111.171 126.178 136.187  0.00  0.00    +0.000 C 
ATOM     28  C   UNL     1     111.223 125.378 135.995  0.00  0.00    +0.000 C 
ATOM     29  C   UNL     1     111.799 124.905 136.349  0.00  0.00    +0.000 C 
ATOM     30  C   UNL     1     112.322 125.232 136.896  0.00  0.00    +0.000 C 
ATOM     31  C   UNL     1     112.270 126.033 137.089  0.00  0.00    +0.000 C 
BRANCH  27  32
ATOM     32  C   UNL     1     110.595 126.652 135.833  0.00  0.00    +0.000 C 
BRANCH  32  33
ATOM     33  O   UNL     1     110.126 127.146 136.298  0.00  0.00    +0.000 OA
BRANCH  33  39
ATOM     34  O   UNL     1     110.300 128.354 135.554  0.00  0.00    +0.000 OA
ATOM     35  O   UNL     1     108.528 127.503 136.505  0.00  0.00    +0.000 OA
ATOM     36  O   UNL     1     107.903 128.890 135.864  0.00  0.00    +0.000 OA
ATOM     37  O   UNL     1     108.876 129.918 135.017  0.00  0.00    +0.000 OA
ATOM     38  C   UNL     1     109.014 128.018 136.081  0.00  0.00    +0.000 C 
ATOM     39  C   UNL     1     109.813 127.839 135.978  0.00  0.00    +0.000 C 
ATOM     40  C   UNL     1     108.702 128.711 135.761  0.00  0.00    +0.000 C 
ATOM     41  C   UNL     1     109.188 129.225 135.337  0.00  0.00    +0.000 C 
ATOM     42  C   UNL     1     109.987 129.047 135.234  0.00  0.00    +0.000 C 
ATOM     43  C   UNL     1     110.473 129.561 134.811  0.00  0.00    +0.000 C 
ENDBRANCH  33  39
ENDBRANCH  32  33
ENDBRANCH  27  32
ENDBRANCH   1  31
TORSDOF 7
ENDMDL
MODEL 2
REMARK VINA RESULT:     -10.1      1.554      3.626
REMARK  Name = 44259547
REMARK  7 active torsions:
REMARK  status: ('A' for Active; 'I' for Inactive)
REMARK    1  A    between atoms: O_2  and  C_21
REMARK    2  A    between atoms: O_2  and  C_25
REMARK    3  A    between atoms: O_6  and  C_24
REMARK    4  A    between atoms: O_6  and  C_28
REMARK    5  A    between atoms: O_14  and  C_39
REMARK    6  A    between atoms: C_16  and  C_25
REMARK    7  A    between atoms: C_29  and  C_33
REMARK                            x       y       z     vdW  Elec       q    Type
REMARK                         _______ _______ _______ _____ _____    ______ ____
ROOT
ATOM      1  O   UNL     1     112.215 125.366 137.127  0.00  0.00    +0.000 OA
ENDROOT
BRANCH   1   5
ATOM      2  O   UNL     1     113.496 126.186 138.693  0.00  0.00    +0.000 OA
ATOM      3  O   UNL     1     111.091 125.795 138.257  0.00  0.00    +0.000 OA
ATOM      4  O   UNL     1     110.738 126.355 139.538  0.00  0.00    +0.000 OA
ATOM      5  C   UNL     1     112.454 125.711 137.837  0.00  0.00    +0.000 A 
ATOM      6  C   UNL     1     113.255 125.841 137.982  0.00  0.00    +0.000 A 
ATOM      7  C   UNL     1     111.892 125.925 138.402  0.00  0.00    +0.000 A 
ATOM      8  C   UNL     1     112.132 126.270 139.112  0.00  0.00    +0.000 A 
ATOM      9  C   UNL     1     112.933 126.400 139.257  0.00  0.00    +0.000 A 
ATOM     10  C   UNL     1     111.537 126.489 139.693  0.00  0.00    +0.000 A 
ATOM     11  C   UNL     1     113.195 126.759 139.993  0.00  0.00    +0.000 A 
ATOM     12  C   UNL     1     111.780 126.848 140.434  0.00  0.00    +0.000 A 
ATOM     13  C   UNL     1     112.615 126.984 140.585  0.00  0.00    +0.000 A 
BRANCH   6  15
ATOM     14  O   UNL     1     115.505 124.987 135.724  0.00  0.00    +0.000 OA
ATOM     15  C   UNL     1     113.818 125.627 137.418  0.00  0.00    +0.000 A 
ATOM     16  C   UNL     1     114.173 126.207 136.949  0.00  0.00    +0.000 A 
ATOM     17  C   UNL     1     114.025 124.834 137.321  0.00  0.00    +0.000 A 
ATOM     18  C   UNL     1     114.735 125.993 136.385  0.00  0.00    +0.000 A 
ATOM     19  C   UNL     1     114.588 124.621 136.757  0.00  0.00    +0.000 A 
ATOM     20  C   UNL     1     114.942 125.200 136.289  0.00  0.00    +0.000 A 
ENDBRANCH   6  15
BRANCH  13  21
ATOM     21  O   UNL     1     112.859 127.329 141.294  0.00  0.00    +0.000 OA
ATOM     22  C   UNL     1     112.886 128.151 141.365  0.00  0.00    +0.000 C 
ENDBRANCH  13  21
ENDBRANCH   1   5
BRANCH   1  31
ATOM     23  O   UNL     1     111.715 126.603 136.614  0.00  0.00    +0.000 OA
ATOM     24  O   UNL     1     110.212 127.014 135.086  0.00  0.00    +0.000 OA
ATOM     25  O   UNL     1     110.209 125.364 135.091  0.00  0.00    +0.000 OA
ATOM     26  O   UNL     1     111.210 124.540 136.112  0.00  0.00    +0.000 OA
ATOM     27  C   UNL     1     111.215 127.015 136.104  0.00  0.00    +0.000 C 
ATOM     28  C   UNL     1     110.713 126.602 135.597  0.00  0.00    +0.000 C 
ATOM     29  C   UNL     1     110.711 125.777 135.599  0.00  0.00    +0.000 C 
ATOM     30  C   UNL     1     111.211 125.365 136.109  0.00  0.00    +0.000 C 
ATOM     31  C   UNL     1     111.714 125.778 136.617  0.00  0.00    +0.000 C 
BRANCH  27  32
ATOM     32  C   UNL     1     111.217 127.840 136.102  0.00  0.00    +0.000 C 
BRANCH  32  33
ATOM     33  O   UNL     1     111.926 128.250 136.000  0.00  0.00    +0.000 OA
BRANCH  33  39
ATOM     34  O   UNL     1     111.637 129.144 137.077  0.00  0.00    +0.000 OA
ATOM     35  O   UNL     1     112.965 129.359 135.358  0.00  0.00    +0.000 OA
ATOM     36  O   UNL     1     113.196 130.808 136.113  0.00  0.00    +0.000 OA
ATOM     37  O   UNL     1     112.388 131.147 137.510  0.00  0.00    +0.000 OA
ATOM     38  C   UNL     1     112.561 129.529 136.056  0.00  0.00    +0.000 C 
ATOM     39  C   UNL     1     112.041 128.974 136.377  0.00  0.00    +0.000 C 
ATOM     40  C   UNL     1     112.676 130.253 136.434  0.00  0.00    +0.000 C 
ATOM     41  C   UNL     1     112.273 130.423 137.133  0.00  0.00    +0.000 C 
ATOM     42  C   UNL     1     111.753 129.869 137.454  0.00  0.00    +0.000 C 
ATOM     43  C   UNL     1     111.349 130.038 138.153  0.00  0.00    +0.000 C 
ENDBRANCH  33  39
ENDBRANCH  32  33
ENDBRANCH  27  32
ENDBRANCH   1  31
TORSDOF 7
ENDMDL
MODEL 3
REMARK VINA RESULT:     -10.0      1.752      3.356
REMARK  Name = 44259547
REMARK  7 active torsions:
REMARK  status: ('A' for Active; 'I' for Inactive)
REMARK    1  A    between atoms: O_2  and  C_21
REMARK    2  A    between atoms: O_2  and  C_25
REMARK    3  A    between atoms: O_6  and  C_24
REMARK    4  A    between atoms: O_6  and  C_28
REMARK    5  A    between atoms: O_14  and  C_39
REMARK    6  A    between atoms: C_16  and  C_25
REMARK    7  A    between atoms: C_29  and  C_33
REMARK                            x       y       z     vdW  Elec       q    Type
REMARK                         _______ _______ _______ _____ _____    ______ ____
ROOT
ATOM      1  O   UNL     1     111.276 127.328 137.154  0.00  0.00    +0.000 OA
ENDROOT
BRANCH   1   5
ATOM      2  O   UNL     1     112.218 128.036 135.317  0.00  0.00    +0.000 OA
ATOM      3  O   UNL     1     112.365 128.409 137.759  0.00  0.00    +0.000 OA
ATOM      4  O   UNL     1     113.417 129.380 137.577  0.00  0.00    +0.000 OA
ATOM      5  C   UNL     1     111.771 127.744 136.643  0.00  0.00    +0.000 A 
ATOM      6  C   UNL     1     111.722 127.619 135.829  0.00  0.00    +0.000 A 
ATOM      7  C   UNL     1     112.316 128.285 136.945  0.00  0.00    +0.000 A 
ATOM      8  C   UNL     1     112.811 128.701 136.434  0.00  0.00    +0.000 A 
ATOM      9  C   UNL     1     112.762 128.577 135.620  0.00  0.00    +0.000 A 
ATOM     10  C   UNL     1     113.375 129.262 136.762  0.00  0.00    +0.000 A 
ATOM     11  C   UNL     1     113.273 129.005 135.077  0.00  0.00    +0.000 A 
ATOM     12  C   UNL     1     113.893 129.698 136.234  0.00  0.00    +0.000 A 
ATOM     13  C   UNL     1     113.842 129.569 135.386  0.00  0.00    +0.000 A 
BRANCH   6  15
ATOM     14  O   UNL     1     109.546 125.455 134.617  0.00  0.00    +0.000 OA
ATOM     15  C   UNL     1     111.178 127.079 135.526  0.00  0.00    +0.000 A 
ATOM     16  C   UNL     1     111.294 126.269 135.640  0.00  0.00    +0.000 A 
ATOM     17  C   UNL     1     110.519 127.347 135.109  0.00  0.00    +0.000 A 
ATOM     18  C   UNL     1     110.749 125.729 135.337  0.00  0.00    +0.000 A 
ATOM     19  C   UNL     1     109.975 126.805 134.806  0.00  0.00    +0.000 A 
ATOM     20  C   UNL     1     110.090 125.997 134.920  0.00  0.00    +0.000 A 
ENDBRANCH   6  15
BRANCH  13  21
ATOM     21  O   UNL     1     114.337 129.984 134.872  0.00  0.00    +0.000 OA
ATOM     22  C   UNL     1     115.049 129.649 134.625  0.00  0.00    +0.000 C 
ENDBRANCH  13  21
ENDBRANCH   1   5
BRANCH   1  31
ATOM     23  O   UNL     1     110.417 128.441 137.407  0.00  0.00    +0.000 OA
ATOM     24  O   UNL     1     109.231 128.961 139.164  0.00  0.00    +0.000 OA
ATOM     25  O   UNL     1     109.927 127.551 139.664  0.00  0.00    +0.000 OA
ATOM     26  O   UNL     1     110.949 126.734 138.659  0.00  0.00    +0.000 OA
ATOM     27  C   UNL     1     109.906 128.850 137.910  0.00  0.00    +0.000 C 
ATOM     28  C   UNL     1     109.742 128.553 138.662  0.00  0.00    +0.000 C 
ATOM     29  C   UNL     1     110.090 127.848 138.912  0.00  0.00    +0.000 C 
ATOM     30  C   UNL     1     110.601 127.439 138.409  0.00  0.00    +0.000 C 
ATOM     31  C   UNL     1     110.765 127.736 137.657  0.00  0.00    +0.000 C 
BRANCH  27  32
ATOM     32  C   UNL     1     109.558 129.555 137.660  0.00  0.00    +0.000 C 
BRANCH  32  33
ATOM     33  O   UNL     1     109.164 129.585 136.935  0.00  0.00    +0.000 OA
BRANCH  33  39
ATOM     34  O   UNL     1     109.538 130.939 136.673  0.00  0.00    +0.000 OA
ATOM     35  O   UNL     1     107.792 129.792 136.042  0.00  0.00    +0.000 OA
ATOM     36  O   UNL     1     107.481 131.249 135.333  0.00  0.00    +0.000 OA
ATOM     37  O   UNL     1     108.541 132.499 135.517  0.00  0.00    +0.000 OA
ATOM     38  C   UNL     1     108.322 130.417 136.134  0.00  0.00    +0.000 C 
ATOM     39  C   UNL     1     109.008 130.314 136.581  0.00  0.00    +0.000 C 
ATOM     40  C   UNL     1     108.167 131.146 135.779  0.00  0.00    +0.000 C 
ATOM     41  C   UNL     1     108.696 131.771 135.872  0.00  0.00    +0.000 C 
ATOM     42  C   UNL     1     109.382 131.667 136.318  0.00  0.00    +0.000 C 
ATOM     43  C   UNL     1     109.913 132.292 136.411  0.00  0.00    +0.000 C 
ENDBRANCH  33  39
ENDBRANCH  32  33
ENDBRANCH  27  32
ENDBRANCH   1  31
TORSDOF 7
ENDMDL
MODEL 4
REMARK VINA RESULT:     -10.0      1.069      2.570
REMARK  Name = 44259547
REMARK  7 active torsions:
REMARK  status: ('A' for Active; 'I' for Inactive)
REMARK    1  A    between atoms: O_2  and  C_21
REMARK    2  A    between atoms: O_2  and  C_25
REMARK    3  A    between atoms: O_6  and  C_24
REMARK    4  A    between atoms: O_6  and  C_28
REMARK    5  A    between atoms: O_14  and  C_39
REMARK    6  A    between atoms: C_16  and  C_25
REMARK    7  A    between atoms: C_29  and  C_33
REMARK                            x       y       z     vdW  Elec       q    Type
REMARK                         _______ _______ _______ _____ _____    ______ ____
ROOT
ATOM      1  O   UNL     1     112.915 126.663 138.312  0.00  0.00    +0.000 OA
ENDROOT
BRANCH   1   5
ATOM      2  O   UNL     1     113.507 127.304 136.311  0.00  0.00    +0.000 OA
ATOM      3  O   UNL     1     113.060 128.291 138.536  0.00  0.00    +0.000 OA
ATOM      4  O   UNL     1     113.352 129.614 138.041  0.00  0.00    +0.000 OA
ATOM      5  C   UNL     1     113.136 127.148 137.683  0.00  0.00    +0.000 A 
ATOM      6  C   UNL     1     113.285 126.819 136.941  0.00  0.00    +0.000 A 
ATOM      7  C   UNL     1     113.209 127.962 137.795  0.00  0.00    +0.000 A 
ATOM      8  C   UNL     1     113.431 128.447 137.166  0.00  0.00    +0.000 A 
ATOM      9  C   UNL     1     113.580 128.118 136.424  0.00  0.00    +0.000 A 
ATOM     10  C   UNL     1     113.503 129.294 137.295  0.00  0.00    +0.000 A 
ATOM     11  C   UNL     1     113.812 128.613 135.761  0.00  0.00    +0.000 A 
ATOM     12  C   UNL     1     113.734 129.804 136.644  0.00  0.00    +0.000 A 
ATOM     13  C   UNL     1     113.889 129.461 135.871  0.00  0.00    +0.000 A 
BRANCH   6  15
ATOM     14  O   UNL     1     112.993 123.563 136.488  0.00  0.00    +0.000 OA
ATOM     15  C   UNL     1     113.213 126.005 136.828  0.00  0.00    +0.000 A 
ATOM     16  C   UNL     1     112.556 125.701 136.430  0.00  0.00    +0.000 A 
ATOM     17  C   UNL     1     113.796 125.495 137.112  0.00  0.00    +0.000 A 
ATOM     18  C   UNL     1     112.484 124.887 136.317  0.00  0.00    +0.000 A 
ATOM     19  C   UNL     1     113.722 124.681 136.999  0.00  0.00    +0.000 A 
ATOM     20  C   UNL     1     113.067 124.377 136.601  0.00  0.00    +0.000 A 
ENDBRANCH   6  15
BRANCH  13  21
ATOM     21  O   UNL     1     114.111 129.944 135.239  0.00  0.00    +0.000 OA
ATOM     22  C   UNL     1     114.905 129.999 135.023  0.00  0.00    +0.000 C 
ENDBRANCH  13  21
ENDBRANCH   1   5
BRANCH   1  31
ATOM     23  O   UNL     1     111.571 127.149 138.290  0.00  0.00    +0.000 OA
ATOM     24  O   UNL     1     110.026 127.148 139.830  0.00  0.00    +0.000 OA
ATOM     25  O   UNL     1     111.268 126.419 140.635  0.00  0.00    +0.000 OA
ATOM     26  O   UNL     1     112.713 126.176 139.875  0.00  0.00    +0.000 OA
ATOM     27  C   UNL     1     110.849 127.270 138.669  0.00  0.00    +0.000 C 
ATOM     28  C   UNL     1     110.748 127.027 139.451  0.00  0.00    +0.000 C 
ATOM     29  C   UNL     1     111.369 126.662 139.853  0.00  0.00    +0.000 C 
ATOM     30  C   UNL     1     112.091 126.541 139.474  0.00  0.00    +0.000 C 
ATOM     31  C   UNL     1     112.193 126.784 138.691  0.00  0.00    +0.000 C 
BRANCH  27  32
ATOM     32  C   UNL     1     110.228 127.635 138.267  0.00  0.00    +0.000 C 
BRANCH  32  33
ATOM     33  O   UNL     1     110.041 127.399 137.498  0.00  0.00    +0.000 OA
BRANCH  33  39
ATOM     34  O   UNL     1     109.982 128.689 136.886  0.00  0.00    +0.000 OA
ATOM     35  O   UNL     1     108.698 126.939 136.657  0.00  0.00    +0.000 OA
ATOM     36  O   UNL     1     107.968 127.998 135.624  0.00  0.00    +0.000 OA
ATOM     37  O   UNL     1     108.580 129.518 135.433  0.00  0.00    +0.000 OA
ATOM     38  C   UNL     1     109.004 127.698 136.561  0.00  0.00    +0.000 C 
ATOM     39  C   UNL     1     109.675 127.929 136.982  0.00  0.00    +0.000 C 
ATOM     40  C   UNL     1     108.639 128.229 136.045  0.00  0.00    +0.000 C 
ATOM     41  C   UNL     1     108.945 128.988 135.949  0.00  0.00    +0.000 C 
ATOM     42  C   UNL     1     109.616 129.218 136.370  0.00  0.00    +0.000 C 
ATOM     43  C   UNL     1     109.923 129.978 136.274  0.00  0.00    +0.000 C 
ENDBRANCH  33  39
ENDBRANCH  32  33
ENDBRANCH  27  32
ENDBRANCH   1  31
TORSDOF 7
ENDMDL
MODEL 5
REMARK VINA RESULT:     -10.0      1.928      4.374
REMARK  Name = 44259547
REMARK  7 active torsions:
REMARK  status: ('A' for Active; 'I' for Inactive)
REMARK    1  A    between atoms: O_2  and  C_21
REMARK    2  A    between atoms: O_2  and  C_25
REMARK    3  A    between atoms: O_6  and  C_24
REMARK    4  A    between atoms: O_6  and  C_28
REMARK    5  A    between atoms: O_14  and  C_39
REMARK    6  A    between atoms: C_16  and  C_25
REMARK    7  A    between atoms: C_29  and  C_33
REMARK                            x       y       z     vdW  Elec       q    Type
REMARK                         _______ _______ _______ _____ _____    ______ ____
ROOT
ATOM      1  O   UNL     1     112.825 128.850 137.270  0.00  0.00    +0.000 OA
ENDROOT
BRANCH   1   5
ATOM      2  O   UNL     1     112.198 127.604 135.592  0.00  0.00    +0.000 OA
ATOM      3  O   UNL     1     111.641 127.945 137.979  0.00  0.00    +0.000 OA
ATOM      4  O   UNL     1     110.627 126.921 137.919  0.00  0.00    +0.000 OA
ATOM      5  C   UNL     1     112.419 128.284 136.829  0.00  0.00    +0.000 A 
ATOM      6  C   UNL     1     112.604 128.170 136.034  0.00  0.00    +0.000 A 
ATOM      7  C   UNL     1     111.827 127.831 137.183  0.00  0.00    +0.000 A 
ATOM      8  C   UNL     1     111.420 127.265 136.742  0.00  0.00    +0.000 A 
ATOM      9  C   UNL     1     111.606 127.152 135.946  0.00  0.00    +0.000 A 
ATOM     10  C   UNL     1     110.806 126.800 137.123  0.00  0.00    +0.000 A 
ATOM     11  C   UNL     1     111.190 126.565 135.476  0.00  0.00    +0.000 A 
ATOM     12  C   UNL     1     110.379 126.209 136.668  0.00  0.00    +0.000 A 
ATOM     13  C   UNL     1     110.572 126.091 135.839  0.00  0.00    +0.000 A 
BRANCH   6  15
ATOM     14  O   UNL     1     114.970 129.980 134.613  0.00  0.00    +0.000 OA
ATOM     15  C   UNL     1     113.196 128.622 135.679  0.00  0.00    +0.000 A 
ATOM     16  C   UNL     1     112.995 129.212 135.137  0.00  0.00    +0.000 A 
ATOM     17  C   UNL     1     113.988 128.485 135.865  0.00  0.00    +0.000 A 
ATOM     18  C   UNL     1     113.587 129.664 134.782  0.00  0.00    +0.000 A 
ATOM     19  C   UNL     1     114.579 128.938 135.509  0.00  0.00    +0.000 A 
ATOM     20  C   UNL     1     114.379 129.527 134.968  0.00  0.00    +0.000 A 
ENDBRANCH   6  15
BRANCH  13  21
ATOM     21  O   UNL     1     110.168 125.525 135.395  0.00  0.00    +0.000 OA
ATOM     22  C   UNL     1     109.662 125.763 134.788  0.00  0.00    +0.000 C 
ENDBRANCH  13  21
ENDBRANCH   1   5
BRANCH   1  31
ATOM     23  O   UNL     1     111.782 129.826 137.232  0.00  0.00    +0.000 OA
ATOM     24  O   UNL     1     111.175 131.328 138.694  0.00  0.00    +0.000 OA
ATOM     25  O   UNL     1     112.437 130.616 139.484  0.00  0.00    +0.000 OA
ATOM     26  O   UNL     1     113.262 129.377 138.772  0.00  0.00    +0.000 OA
ATOM     27  C   UNL     1     111.369 130.445 137.588  0.00  0.00    +0.000 C 
ATOM     28  C   UNL     1     111.588 130.708 138.338  0.00  0.00    +0.000 C 
ATOM     29  C   UNL     1     112.219 130.353 138.734  0.00  0.00    +0.000 C 
ATOM     30  C   UNL     1     112.631 129.733 138.378  0.00  0.00    +0.000 C 
ATOM     31  C   UNL     1     112.413 129.469 137.626  0.00  0.00    +0.000 C 
BRANCH  27  32
ATOM     32  C   UNL     1     110.738 130.801 137.193  0.00  0.00    +0.000 C 
BRANCH  32  33
ATOM     33  O   UNL     1     110.102 130.342 136.936  0.00  0.00    +0.000 OA
BRANCH  33  39
ATOM     34  O   UNL     1     109.633 131.412 136.113  0.00  0.00    +0.000 OA
ATOM     35  O   UNL     1     108.659 129.565 136.749  0.00  0.00    +0.000 OA
ATOM     36  O   UNL     1     107.468 130.246 135.832  0.00  0.00    +0.000 OA
ATOM     37  O   UNL     1     107.720 131.704 135.104  0.00  0.00    +0.000 OA
ATOM     38  C   UNL     1     108.785 130.294 136.384  0.00  0.00    +0.000 C 
ATOM     39  C   UNL     1     109.506 130.682 136.478  0.00  0.00    +0.000 C 
ATOM     40  C   UNL     1     108.189 130.635 135.926  0.00  0.00    +0.000 C 
ATOM     41  C   UNL     1     108.315 131.364 135.562  0.00  0.00    +0.000 C 
ATOM     42  C   UNL     1     109.037 131.752 135.655  0.00  0.00    +0.000 C 
ATOM     43  C   UNL     1     109.163 132.481 135.291  0.00  0.00    +0.000 C 
ENDBRANCH  33  39
ENDBRANCH  32  33
ENDBRANCH  27  32
ENDBRANCH   1  31
TORSDOF 7
ENDMDL
MODEL 6
REMARK VINA RESULT:      -9.9      8.742     11.601
REMARK  Name = 44259547
REMARK  7 active torsions:
REMARK  status: ('A' for Active; 'I' for Inactive)
REMARK    1  A    between atoms: O_2  and  C_21
REMARK    2  A    between atoms: O_2  and  C_25
REMARK    3  A    between atoms: O_6  and  C_24
REMARK    4  A    between atoms: O_6  and  C_28
REMARK    5  A    between atoms: O_14  and  C_39
REMARK    6  A    between atoms: C_16  and  C_25
REMARK    7  A    between atoms: C_29  and  C_33
REMARK                            x       y       z     vdW  Elec       q    Type
REMARK                         _______ _______ _______ _____ _____    ______ ____
ROOT
ATOM      1  O   UNL     1     106.699 127.103 146.488  0.00  0.00    +0.000 OA
ENDROOT
BRANCH   1   5
ATOM      2  O   UNL     1     105.338 127.949 145.007  0.00  0.00    +0.000 OA
ATOM      3  O   UNL     1     107.114 126.231 145.150  0.00  0.00    +0.000 OA
ATOM      4  O   UNL     1     106.956 125.909 143.753  0.00  0.00    +0.000 OA
ATOM      5  C   UNL     1     106.315 127.239 145.772  0.00  0.00    +0.000 A 
ATOM      6  C   UNL     1     105.723 127.812 145.724  0.00  0.00    +0.000 A 
ATOM      7  C   UNL     1     106.522 126.804 145.102  0.00  0.00    +0.000 A 
ATOM      8  C   UNL     1     106.138 126.940 144.386  0.00  0.00    +0.000 A 
ATOM      9  C   UNL     1     105.545 127.513 144.338  0.00  0.00    +0.000 A 
ATOM     10  C   UNL     1     106.363 126.480 143.696  0.00  0.00    +0.000 A 
ATOM     11  C   UNL     1     105.138 127.664 143.597  0.00  0.00    +0.000 A 
ATOM     12  C   UNL     1     105.966 126.618 142.946  0.00  0.00    +0.000 A 
ATOM     13  C   UNL     1     105.349 127.214 142.897  0.00  0.00    +0.000 A 
BRANCH   6  15
ATOM     14  O   UNL     1     104.893 129.558 148.399  0.00  0.00    +0.000 OA
ATOM     15  C   UNL     1     105.515 128.248 146.393  0.00  0.00    +0.000 A 
ATOM     16  C   UNL     1     106.006 128.857 146.657  0.00  0.00    +0.000 A 
ATOM     17  C   UNL     1     104.817 128.076 146.797  0.00  0.00    +0.000 A 
ATOM     18  C   UNL     1     105.798 129.293 147.325  0.00  0.00    +0.000 A 
ATOM     19  C   UNL     1     104.610 128.513 147.466  0.00  0.00    +0.000 A 
ATOM     20  C   UNL     1     105.100 129.121 147.730  0.00  0.00    +0.000 A 
ENDBRANCH   6  15
BRANCH  13  21
ATOM     21  O   UNL     1     104.962 127.353 142.181  0.00  0.00    +0.000 OA
ATOM     22  C   UNL     1     105.047 128.081 141.802  0.00  0.00    +0.000 C 
ENDBRANCH  13  21
ENDBRANCH   1   5
BRANCH   1  31
ATOM     23  O   UNL     1     105.987 125.900 146.786  0.00  0.00    +0.000 OA
ATOM     24  O   UNL     1     106.602 124.106 147.867  0.00  0.00    +0.000 OA
ATOM     25  O   UNL     1     107.977 125.013 147.961  0.00  0.00    +0.000 OA
ATOM     26  O   UNL     1     108.025 126.512 147.272  0.00  0.00    +0.000 OA
ATOM     27  C   UNL     1     105.963 125.151 147.131  0.00  0.00    +0.000 C 
ATOM     28  C   UNL     1     106.626 124.855 147.523  0.00  0.00    +0.000 C 
ATOM     29  C   UNL     1     107.314 125.309 147.570  0.00  0.00    +0.000 C 
ATOM     30  C   UNL     1     107.338 126.058 147.225  0.00  0.00    +0.000 C 
ATOM     31  C   UNL     1     106.675 126.354 146.833  0.00  0.00    +0.000 C 
BRANCH  27  32
ATOM     32  C   UNL     1     105.275 124.697 147.084  0.00  0.00    +0.000 C 
BRANCH  32  33
ATOM     33  O   UNL     1     105.036 124.387 146.358  0.00  0.00    +0.000 OA
BRANCH  33  39
ATOM     34  O   UNL     1     103.779 124.016 146.928  0.00  0.00    +0.000 OA
ATOM     35  O   UNL     1     104.613 123.647 144.945  0.00  0.00    +0.000 OA
ATOM     36  O   UNL     1     103.145 122.906 144.809  0.00  0.00    +0.000 OA
ATOM     37  O   UNL     1     102.100 122.905 146.085  0.00  0.00    +0.000 OA
ATOM     38  C   UNL     1     104.091 123.646 145.583  0.00  0.00    +0.000 C 
ATOM     39  C   UNL     1     104.302 124.016 146.289  0.00  0.00    +0.000 C 
ATOM     40  C   UNL     1     103.356 123.276 145.515  0.00  0.00    +0.000 C 
ATOM     41  C   UNL     1     102.834 123.275 146.153  0.00  0.00    +0.000 C 
ATOM     42  C   UNL     1     103.045 123.646 146.859  0.00  0.00    +0.000 C 
ATOM     43  C   UNL     1     102.523 123.646 147.498  0.00  0.00    +0.000 C 
ENDBRANCH  33  39
ENDBRANCH  32  33
ENDBRANCH  27  32
ENDBRANCH   1  31
TORSDOF 7
ENDMDL
MODEL 7
REMARK VINA RESULT:      -9.9      1.823      5.155
REMARK  Name = 44259547
REMARK  7 active torsions:
REMARK  status: ('A' for Active; 'I' for Inactive)
REMARK    1  A    between atoms: O_2  and  C_21
REMARK    2  A    between atoms: O_2  and  C_25
REMARK    3  A    between atoms: O_6  and  C_24
REMARK    4  A    between atoms: O_6  and  C_28
REMARK    5  A    between atoms: O_14  and  C_39
REMARK    6  A    between atoms: C_16  and  C_25
REMARK    7  A    between atoms: C_29  and  C_33
REMARK                            x       y       z     vdW  Elec       q    Type
REMARK                         _______ _______ _______ _____ _____    ______ ____
ROOT
ATOM      1  O   UNL     1     112.523 129.061 135.694  0.00  0.00    +0.000 OA
ENDROOT
BRANCH   1   5
ATOM      2  O   UNL     1     114.237 127.748 136.016  0.00  0.00    +0.000 OA
ATOM      3  O   UNL     1     111.766 127.660 136.126  0.00  0.00    +0.000 OA
ATOM      4  O   UNL     1     111.805 126.274 136.526  0.00  0.00    +0.000 OA
ATOM      5  C   UNL     1     112.968 128.390 135.873  0.00  0.00    +0.000 A 
ATOM      6  C   UNL     1     113.791 128.420 135.836  0.00  0.00    +0.000 A 
ATOM      7  C   UNL     1     112.590 127.689 136.089  0.00  0.00    +0.000 A 
ATOM      8  C   UNL     1     113.035 127.019 136.268  0.00  0.00    +0.000 A 
ATOM      9  C   UNL     1     113.858 127.048 136.231  0.00  0.00    +0.000 A 
ATOM     10  C   UNL     1     112.629 126.294 136.492  0.00  0.00    +0.000 A 
ATOM     11  C   UNL     1     114.333 126.355 136.416  0.00  0.00    +0.000 A 
ATOM     12  C   UNL     1     113.087 125.592 136.679  0.00  0.00    +0.000 A 
ATOM     13  C   UNL     1     113.945 125.623 136.641  0.00  0.00    +0.000 A 
BRANCH   6  15
ATOM     14  O   UNL     1     115.307 131.221 134.971  0.00  0.00    +0.000 OA
ATOM     15  C   UNL     1     114.170 129.120 135.621  0.00  0.00    +0.000 A 
ATOM     16  C   UNL     1     114.193 129.349 134.828  0.00  0.00    +0.000 A 
ATOM     17  C   UNL     1     114.527 129.591 136.197  0.00  0.00    +0.000 A 
ATOM     18  C   UNL     1     114.572 130.049 134.612  0.00  0.00    +0.000 A 
ATOM     19  C   UNL     1     114.905 130.292 135.980  0.00  0.00    +0.000 A 
ATOM     20  C   UNL     1     114.928 130.521 135.188  0.00  0.00    +0.000 A 
ENDBRANCH   6  15
BRANCH  13  21
ATOM     21  O   UNL     1     114.393 124.954 136.819  0.00  0.00    +0.000 OA
ATOM     22  C   UNL     1     114.677 124.841 137.586  0.00  0.00    +0.000 C 
ENDBRANCH  13  21
ENDBRANCH   1   5
BRANCH   1  31
ATOM     23  O   UNL     1     112.180 129.306 137.060  0.00  0.00    +0.000 OA
ATOM     24  O   UNL     1     110.462 130.321 137.942  0.00  0.00    +0.000 OA
ATOM     25  O   UNL     1     110.116 130.462 136.335  0.00  0.00    +0.000 OA
ATOM     26  O   UNL     1     111.147 129.832 135.211  0.00  0.00    +0.000 OA
ATOM     27  C   UNL     1     111.665 129.621 137.622  0.00  0.00    +0.000 C 
ATOM     28  C   UNL     1     110.977 130.006 137.380  0.00  0.00    +0.000 C 
ATOM     29  C   UNL     1     110.804 130.077 136.577  0.00  0.00    +0.000 C 
ATOM     30  C   UNL     1     111.319 129.762 136.015  0.00  0.00    +0.000 C 
ATOM     31  C   UNL     1     112.008 129.376 136.256  0.00  0.00    +0.000 C 
BRANCH  27  32
ATOM     32  C   UNL     1     111.838 129.550 138.426  0.00  0.00    +0.000 C 
BRANCH  32  33
ATOM     33  O   UNL     1     112.568 129.804 138.713  0.00  0.00    +0.000 OA
BRANCH  33  39
ATOM     34  O   UNL     1     112.928 128.612 139.415  0.00  0.00    +0.000 OA
ATOM     35  O   UNL     1     113.193 130.714 139.940  0.00  0.00    +0.000 OA
ATOM     36  O   UNL     1     113.865 129.977 141.255  0.00  0.00    +0.000 OA
ATOM     37  O   UNL     1     113.911 128.331 141.342  0.00  0.00    +0.000 OA
ATOM     38  C   UNL     1     113.217 129.891 139.984  0.00  0.00    +0.000 C 
ATOM     39  C   UNL     1     112.904 129.437 139.371  0.00  0.00    +0.000 C 
ATOM     40  C   UNL     1     113.552 129.522 140.641  0.00  0.00    +0.000 C 
ATOM     41  C   UNL     1     113.576 128.699 140.685  0.00  0.00    +0.000 C 
ATOM     42  C   UNL     1     113.263 128.244 140.072  0.00  0.00    +0.000 C 
ATOM     43  C   UNL     1     113.286 127.421 140.116  0.00  0.00    +0.000 C 
ENDBRANCH  33  39
ENDBRANCH  32  33
ENDBRANCH  27  32
ENDBRANCH   1  31
TORSDOF 7
ENDMDL
MODEL 8
REMARK VINA RESULT:      -9.8      1.220      3.265
REMARK  Name = 44259547
REMARK  7 active torsions:
REMARK  status: ('A' for Active; 'I' for Inactive)
REMARK    1  A    between atoms: O_2  and  C_21
REMARK    2  A    between atoms: O_2  and  C_25
REMARK    3  A    between atoms: O_6  and  C_24
REMARK    4  A    between atoms: O_6  and  C_28
REMARK    5  A    between atoms: O_14  and  C_39
REMARK    6  A    between atoms: C_16  and  C_25
REMARK    7  A    between atoms: C_29  and  C_33
REMARK                            x       y       z     vdW  Elec       q    Type
REMARK                         _______ _______ _______ _____ _____    ______ ____
ROOT
ATOM      1  O   UNL     1     113.222 126.714 137.185  0.00  0.00    +0.000 OA
ENDROOT
BRANCH   1   5
ATOM      2  O   UNL     1     112.089 126.016 138.915  0.00  0.00    +0.000 OA
ATOM      3  O   UNL     1     113.546 127.911 138.273  0.00  0.00    +0.000 OA
ATOM      4  O   UNL     1     113.400 128.503 139.580  0.00  0.00    +0.000 OA
ATOM      5  C   UNL     1     112.899 126.681 137.942  0.00  0.00    +0.000 A 
ATOM      6  C   UNL     1     112.413 126.049 138.156  0.00  0.00    +0.000 A 
ATOM      7  C   UNL     1     113.060 127.279 138.487  0.00  0.00    +0.000 A 
ATOM      8  C   UNL     1     112.737 127.246 139.245  0.00  0.00    +0.000 A 
ATOM      9  C   UNL     1     112.251 126.615 139.459  0.00  0.00    +0.000 A 
ATOM     10  C   UNL     1     112.913 127.876 139.803  0.00  0.00    +0.000 A 
ATOM     11  C   UNL     1     111.908 126.569 140.246  0.00  0.00    +0.000 A 
ATOM     12  C   UNL     1     112.579 127.847 140.594  0.00  0.00    +0.000 A 
ATOM     13  C   UNL     1     112.073 127.189 140.816  0.00  0.00    +0.000 A 
BRANCH   6  15
ATOM     14  O   UNL     1     111.760 123.655 135.981  0.00  0.00    +0.000 OA
ATOM     15  C   UNL     1     112.250 125.451 137.612  0.00  0.00    +0.000 A 
ATOM     16  C   UNL     1     111.502 125.400 137.267  0.00  0.00    +0.000 A 
ATOM     17  C   UNL     1     112.835 124.904 137.414  0.00  0.00    +0.000 A 
ATOM     18  C   UNL     1     111.339 124.801 136.724  0.00  0.00    +0.000 A 
ATOM     19  C   UNL     1     112.671 124.305 136.870  0.00  0.00    +0.000 A 
ATOM     20  C   UNL     1     111.924 124.254 136.525  0.00  0.00    +0.000 A 
ENDBRANCH   6  15
BRANCH  13  21
ATOM     21  O   UNL     1     111.748 127.153 141.574  0.00  0.00    +0.000 OA
ATOM     22  C   UNL     1     110.996 127.462 141.715  0.00  0.00    +0.000 C 
ENDBRANCH  13  21
ENDBRANCH   1   5
BRANCH   1  31
ATOM     23  O   UNL     1     112.365 127.757 136.715  0.00  0.00    +0.000 OA
ATOM     24  O   UNL     1     112.727 129.373 135.294  0.00  0.00    +0.000 OA
ATOM     25  O   UNL     1     114.194 128.617 135.288  0.00  0.00    +0.000 OA
ATOM     26  O   UNL     1     114.441 127.288 136.233  0.00  0.00    +0.000 OA
ATOM     27  C   UNL     1     112.241 128.422 136.242  0.00  0.00    +0.000 C 
ATOM     28  C   UNL     1     112.851 128.708 135.767  0.00  0.00    +0.000 C 
ATOM     29  C   UNL     1     113.585 128.331 135.763  0.00  0.00    +0.000 C 
ATOM     30  C   UNL     1     113.708 127.666 136.236  0.00  0.00    +0.000 C 
ATOM     31  C   UNL     1     113.098 127.379 136.712  0.00  0.00    +0.000 C 
BRANCH  27  32
ATOM     32  C   UNL     1     111.508 128.799 136.246  0.00  0.00    +0.000 C 
BRANCH  32  33
ATOM     33  O   UNL     1     110.824 128.373 136.067  0.00  0.00    +0.000 OA
BRANCH  33  39
ATOM     34  O   UNL     1     110.026 129.517 136.376  0.00  0.00    +0.000 OA
ATOM     35  O   UNL     1     109.474 127.564 135.572  0.00  0.00    +0.000 OA
ATOM     36  O   UNL     1     108.000 128.304 135.633  0.00  0.00    +0.000 OA
ATOM     37  O   UNL     1     107.878 129.852 136.189  0.00  0.00    +0.000 OA
ATOM     38  C   UNL     1     109.412 128.338 135.850  0.00  0.00    +0.000 C 
ATOM     39  C   UNL     1     110.087 128.742 136.098  0.00  0.00    +0.000 C 
ATOM     40  C   UNL     1     108.676 128.708 135.881  0.00  0.00    +0.000 C 
ATOM     41  C   UNL     1     108.614 129.482 136.159  0.00  0.00    +0.000 C 
ATOM     42  C   UNL     1     109.289 129.886 136.406  0.00  0.00    +0.000 C 
ATOM     43  C   UNL     1     109.228 130.660 136.685  0.00  0.00    +0.000 C 
ENDBRANCH  33  39
ENDBRANCH  32  33
ENDBRANCH  27  32
ENDBRANCH   1  31
TORSDOF 7
ENDMDL
MODEL 9
REMARK VINA RESULT:      -9.8      1.942      3.867
REMARK  Name = 44259547
REMARK  7 active torsions:
REMARK  status: ('A' for Active; 'I' for Inactive)
REMARK    1  A    between atoms: O_2  and  C_21
REMARK    2  A    between atoms: O_2  and  C_25
REMARK    3  A    between atoms: O_6  and  C_24
REMARK    4  A    between atoms: O_6  and  C_28
REMARK    5  A    between atoms: O_14  and  C_39
REMARK    6  A    between atoms: C_16  and  C_25
REMARK    7  A    between atoms: C_29  and  C_33
REMARK                            x       y       z     vdW  Elec       q    Type
REMARK                         _______ _______ _______ _____ _____    ______ ____
ROOT
ATOM      1  O   UNL     1     112.196 126.563 136.722  0.00  0.00    +0.000 OA
ENDROOT
BRANCH   1   5
ATOM      2  O   UNL     1     114.078 127.484 136.112  0.00  0.00    +0.000 OA
ATOM      3  O   UNL     1     111.654 127.984 136.081  0.00  0.00    +0.000 OA
ATOM      4  O   UNL     1     111.895 129.256 135.445  0.00  0.00    +0.000 OA
ATOM      5  C   UNL     1     112.732 127.107 136.412  0.00  0.00    +0.000 A 
ATOM      6  C   UNL     1     113.540 126.940 136.423  0.00  0.00    +0.000 A 
ATOM      7  C   UNL     1     112.462 127.817 136.092  0.00  0.00    +0.000 A 
ATOM      8  C   UNL     1     112.999 128.361 135.782  0.00  0.00    +0.000 A 
ATOM      9  C   UNL     1     113.807 128.194 135.792  0.00  0.00    +0.000 A 
ATOM     10  C   UNL     1     112.705 129.098 135.451  0.00  0.00    +0.000 A 
ATOM     11  C   UNL     1     114.377 128.753 135.472  0.00  0.00    +0.000 A 
ATOM     12  C   UNL     1     113.260 129.668 135.127  0.00  0.00    +0.000 A 
ATOM     13  C   UNL     1     114.101 129.494 135.137  0.00  0.00    +0.000 A 
BRANCH   6  15
ATOM     14  O   UNL     1     114.624 124.097 137.701  0.00  0.00    +0.000 OA
ATOM     15  C   UNL     1     113.811 126.230 136.743  0.00  0.00    +0.000 A 
ATOM     16  C   UNL     1     113.738 125.529 136.312  0.00  0.00    +0.000 A 
ATOM     17  C   UNL     1     114.156 126.219 137.492  0.00  0.00    +0.000 A 
ATOM     18  C   UNL     1     114.009 124.819 136.632  0.00  0.00    +0.000 A 
ATOM     19  C   UNL     1     114.426 125.508 137.812  0.00  0.00    +0.000 A 
ATOM     20  C   UNL     1     114.353 124.808 137.382  0.00  0.00    +0.000 A 
ENDBRANCH   6  15
BRANCH  13  21
ATOM     21  O   UNL     1     114.641 130.036 134.828  0.00  0.00    +0.000 OA
ATOM     22  C   UNL     1     114.986 130.601 135.321  0.00  0.00    +0.000 C 
ENDBRANCH  13  21
ENDBRANCH   1   5
BRANCH   1  31
ATOM     23  O   UNL     1     111.913 127.369 137.868  0.00  0.00    +0.000 OA
ATOM     24  O   UNL     1     110.146 127.467 139.146  0.00  0.00    +0.000 OA
ATOM     25  O   UNL     1     109.686 126.307 138.066  0.00  0.00    +0.000 OA
ATOM     26  O   UNL     1     110.711 125.855 136.854  0.00  0.00    +0.000 OA
ATOM     27  C   UNL     1     111.400 127.595 138.474  0.00  0.00    +0.000 C 
ATOM     28  C   UNL     1     110.659 127.241 138.540  0.00  0.00    +0.000 C 
ATOM     29  C   UNL     1     110.428 126.661 138.000  0.00  0.00    +0.000 C 
ATOM     30  C   UNL     1     110.940 126.435 137.394  0.00  0.00    +0.000 C 
ATOM     31  C   UNL     1     111.683 126.789 137.328  0.00  0.00    +0.000 C 
BRANCH  27  32
ATOM     32  C   UNL     1     111.631 128.175 139.014  0.00  0.00    +0.000 C 
BRANCH  32  33
ATOM     33  O   UNL     1     112.342 128.095 139.425  0.00  0.00    +0.000 OA
BRANCH  33  39
ATOM     34  O   UNL     1     112.981 129.334 139.111  0.00  0.00    +0.000 OA
ATOM     35  O   UNL     1     112.723 128.302 141.017  0.00  0.00    +0.000 OA
ATOM     36  O   UNL     1     113.553 129.645 141.499  0.00  0.00    +0.000 OA
ATOM     37  O   UNL     1     114.001 130.779 140.389  0.00  0.00    +0.000 OA
ATOM     38  C   UNL     1     112.947 128.870 140.463  0.00  0.00    +0.000 C 
ATOM     39  C   UNL     1     112.756 128.766 139.667  0.00  0.00    +0.000 C 
ATOM     40  C   UNL     1     113.362 129.541 140.703  0.00  0.00    +0.000 C 
ATOM     41  C   UNL     1     113.586 130.109 140.148  0.00  0.00    +0.000 C 
ATOM     42  C   UNL     1     113.395 130.005 139.352  0.00  0.00    +0.000 C 
ATOM     43  C   UNL     1     113.619 130.572 138.797  0.00  0.00    +0.000 C 
ENDBRANCH  33  39
ENDBRANCH  32  33
ENDBRANCH  27  32
ENDBRANCH   1  31
TORSDOF 7
ENDMDL
MODEL 10
REMARK VINA RESULT:      -9.8      1.123      4.956
REMARK  Name = 44259547
REMARK  7 active torsions:
REMARK  status: ('A' for Active; 'I' for Inactive)
REMARK    1  A    between atoms: O_2  and  C_21
REMARK    2  A    between atoms: O_2  and  C_25
REMARK    3  A    between atoms: O_6  and  C_24
REMARK    4  A    between atoms: O_6  and  C_28
REMARK    5  A    between atoms: O_14  and  C_39
REMARK    6  A    between atoms: C_16  and  C_25
REMARK    7  A    between atoms: C_29  and  C_33
REMARK                            x       y       z     vdW  Elec       q    Type
REMARK                         _______ _______ _______ _____ _____    ______ ____
ROOT
ATOM      1  O   UNL     1     111.973 128.083 136.126  0.00  0.00    +0.000 OA
ENDROOT
BRANCH   1   5
ATOM      2  O   UNL     1     110.943 126.158 136.119  0.00  0.00    +0.000 OA
ATOM      3  O   UNL     1     113.228 127.056 136.434  0.00  0.00    +0.000 OA
ATOM      4  O   UNL     1     113.752 125.729 136.643  0.00  0.00    +0.000 OA
ATOM      5  C   UNL     1     111.839 127.271 136.175  0.00  0.00    +0.000 A 
ATOM      6  C   UNL     1     111.078 126.971 136.070  0.00  0.00    +0.000 A 
ATOM      7  C   UNL     1     112.466 126.757 136.329  0.00  0.00    +0.000 A 
ATOM      8  C   UNL     1     112.332 125.945 136.378  0.00  0.00    +0.000 A 
ATOM      9  C   UNL     1     111.571 125.646 136.273  0.00  0.00    +0.000 A 
ATOM     10  C   UNL     1     112.994 125.420 136.540  0.00  0.00    +0.000 A 
ATOM     11  C   UNL     1     111.418 124.801 136.322  0.00  0.00    +0.000 A 
ATOM     12  C   UNL     1     112.860 124.574 136.592  0.00  0.00    +0.000 A 
ATOM     13  C   UNL     1     112.067 124.262 136.482  0.00  0.00    +0.000 A 
BRANCH   6  15
ATOM     14  O   UNL     1     108.566 129.021 135.455  0.00  0.00    +0.000 OA
ATOM     15  C   UNL     1     110.450 127.484 135.915  0.00  0.00    +0.000 A 
ATOM     16  C   UNL     1     109.890 127.638 136.502  0.00  0.00    +0.000 A 
ATOM     17  C   UNL     1     110.382 127.842 135.175  0.00  0.00    +0.000 A 
ATOM     18  C   UNL     1     109.262 128.150 136.348  0.00  0.00    +0.000 A 
ATOM     19  C   UNL     1     109.753 128.355 135.022  0.00  0.00    +0.000 A 
ATOM     20  C   UNL     1     109.194 128.509 135.608  0.00  0.00    +0.000 A 
ENDBRANCH   6  15
BRANCH  13  21
ATOM     21  O   UNL     1     111.930 123.449 136.531  0.00  0.00    +0.000 OA
ATOM     22  C   UNL     1     111.922 123.076 137.266  0.00  0.00    +0.000 C 
ENDBRANCH  13  21
ENDBRANCH   1   5
BRANCH   1  31
ATOM     23  O   UNL     1     112.048 128.315 137.534  0.00  0.00    +0.000 OA
ATOM     24  O   UNL     1     113.278 129.697 138.691  0.00  0.00    +0.000 OA
ATOM     25  O   UNL     1     113.782 130.039 137.158  0.00  0.00    +0.000 OA
ATOM     26  O   UNL     1     113.130 129.232 135.875  0.00  0.00    +0.000 OA
ATOM     27  C   UNL     1     112.374 128.719 138.175  0.00  0.00    +0.000 C 
ATOM     28  C   UNL     1     112.952 129.293 138.050  0.00  0.00    +0.000 C 
ATOM     29  C   UNL     1     113.204 129.465 137.283  0.00  0.00    +0.000 C 
ATOM     30  C   UNL     1     112.878 129.062 136.642  0.00  0.00    +0.000 C 
ATOM     31  C   UNL     1     112.299 128.486 136.767  0.00  0.00    +0.000 C 
BRANCH  27  32
ATOM     32  C   UNL     1     112.121 128.547 138.942  0.00  0.00    +0.000 C 
BRANCH  32  33
ATOM     33  O   UNL     1     112.010 127.763 139.173  0.00  0.00    +0.000 OA
BRANCH  33  39
ATOM     34  O   UNL     1     111.230 128.169 140.299  0.00  0.00    +0.000 OA
ATOM     35  O   UNL     1     112.209 126.271 139.848  0.00  0.00    +0.000 OA
ATOM     36  O   UNL     1     111.528 125.931 141.312  0.00  0.00    +0.000 OA
ATOM     37  O   UNL     1     110.650 127.082 142.101  0.00  0.00    +0.000 OA
ATOM     38  C   UNL     1     111.770 126.846 140.243  0.00  0.00    +0.000 C 
ATOM     39  C   UNL     1     111.670 127.592 139.905  0.00  0.00    +0.000 C 
ATOM     40  C   UNL     1     111.429 126.677 140.975  0.00  0.00    +0.000 C 
ATOM     41  C   UNL     1     110.990 127.252 141.369  0.00  0.00    +0.000 C 
ATOM     42  C   UNL     1     110.890 127.998 141.031  0.00  0.00    +0.000 C 
ATOM     43  C   UNL     1     110.451 128.575 141.425  0.00  0.00    +0.000 C 
ENDBRANCH  33  39
ENDBRANCH  32  33
ENDBRANCH  27  32
ENDBRANCH   1  31
TORSDOF 7
ENDMDL
