MODEL 1
REMARK VINA RESULT:      -9.1      0.000      0.000
REMARK  Name = 44258547
REMARK  7 active torsions:
REMARK  status: ('A' for Active; 'I' for Inactive)
REMARK    1  A    between atoms: O_2  and  C_18
REMARK    2  A    between atoms: O_2  and  C_20
REMARK    3  A    between atoms: O_9  and  C_24
REMARK    4  A    between atoms: O_10  and  C_31
REMARK    5  A    between atoms: O_12  and  C_33
REMARK    6  A    between atoms: C_17  and  C_19
REMARK    7  A    between atoms: C_21  and  C_23
REMARK                            x       y       z     vdW  Elec       q    Type
REMARK                         _______ _______ _______ _____ _____    ______ ____
ROOT
ATOM      1  C   UNL     1     110.488 126.209 136.527  0.00  0.00    +0.000 A 
ATOM      2  C   UNL     1     111.011 125.729 136.949  0.00  0.00    +0.000 A 
ATOM      3  C   UNL     1     110.329 126.046 135.734  0.00  0.00    +0.000 A 
ATOM      4  C   UNL     1     111.373 125.087 136.578  0.00  0.00    +0.000 A 
ATOM      5  C   UNL     1     110.691 125.404 135.363  0.00  0.00    +0.000 A 
ATOM      6  C   UNL     1     111.213 124.925 135.785  0.00  0.00    +0.000 A 
ENDROOT
BRANCH   2  10
ATOM      7  O   UNL     1     111.822 126.355 137.945  0.00  0.00    +0.000 OA
ATOM      8  O   UNL     1     110.346 125.453 139.715  0.00  0.00    +0.000 OA
ATOM      9  O   UNL     1     111.148 126.075 140.741  0.00  0.00    +0.000 OA
ATOM     10  C   UNL     1     111.170 125.891 137.742  0.00  0.00    +0.000 A 
ATOM     11  C   UNL     1     110.678 125.590 138.332  0.00  0.00    +0.000 A 
ATOM     12  C   UNL     1     111.981 126.518 138.738  0.00  0.00    +0.000 A 
ATOM     13  C   UNL     1     111.489 126.217 139.328  0.00  0.00    +0.000 A 
ATOM     14  C   UNL     1     110.838 125.754 139.125  0.00  0.00    +0.000 A 
ATOM     15  C   UNL     1     112.663 127.003 138.936  0.00  0.00    +0.000 A 
ATOM     16  C   UNL     1     111.645 126.380 140.157  0.00  0.00    +0.000 A 
ATOM     17  C   UNL     1     112.834 127.176 139.760  0.00  0.00    +0.000 A 
ATOM     18  C   UNL     1     112.322 126.862 140.375  0.00  0.00    +0.000 A 
BRANCH  15  19
ATOM     19  O   UNL     1     113.149 127.299 138.339  0.00  0.00    +0.000 OA
ATOM     20  C   UNL     1     113.196 128.113 138.213  0.00  0.00    +0.000 C 
ENDBRANCH  15  19
BRANCH  17  21
ATOM     21  O   UNL     1     113.486 127.640 139.959  0.00  0.00    +0.000 OA
ATOM     22  C   UNL     1     113.797 127.608 140.723  0.00  0.00    +0.000 C 
ENDBRANCH  17  21
ENDBRANCH   2  10
BRANCH   4  23
ATOM     23  O   UNL     1     111.895 124.608 137.000  0.00  0.00    +0.000 OA
ATOM     24  C   UNL     1     112.240 123.953 136.636  0.00  0.00    +0.000 C 
ENDBRANCH   4  23
BRANCH   1  25
ATOM     25  O   UNL     1     110.126 126.850 136.898  0.00  0.00    +0.000 OA
BRANCH  25  34
ATOM     26  O   UNL     1     110.516 127.992 136.133  0.00  0.00    +0.000 OA
ATOM     27  O   UNL     1     108.135 128.583 135.801  0.00  0.00    +0.000 OA
ATOM     28  O   UNL     1     108.539 127.244 136.677  0.00  0.00    +0.000 OA
ATOM     29  O   UNL     1     109.318 129.528 135.146  0.00  0.00    +0.000 OA
ATOM     30  C   UNL     1     108.929 128.386 135.911  0.00  0.00    +0.000 C 
ATOM     31  C   UNL     1     109.131 127.716 136.350  0.00  0.00    +0.000 C 
ATOM     32  C   UNL     1     109.521 128.858 135.584  0.00  0.00    +0.000 C 
ATOM     33  C   UNL     1     110.314 128.661 135.695  0.00  0.00    +0.000 C 
ATOM     34  C   UNL     1     109.924 127.519 136.460  0.00  0.00    +0.000 C 
BRANCH  33  37
ATOM     35  O   UNL     1     111.208 129.772 135.794  0.00  0.00    +0.000 OA
ATOM     36  O   UNL     1     111.194 128.969 134.612  0.00  0.00    +0.000 OA
ATOM     37  C   UNL     1     110.905 129.134 135.367  0.00  0.00    +0.000 C 
ENDBRANCH  33  37
ENDBRANCH  25  34
ENDBRANCH   1  25
TORSDOF 7
ENDMDL
MODEL 2
REMARK VINA RESULT:      -8.7      9.249     11.570
REMARK  Name = 44258547
REMARK  7 active torsions:
REMARK  status: ('A' for Active; 'I' for Inactive)
REMARK    1  A    between atoms: O_2  and  C_18
REMARK    2  A    between atoms: O_2  and  C_20
REMARK    3  A    between atoms: O_9  and  C_24
REMARK    4  A    between atoms: O_10  and  C_31
REMARK    5  A    between atoms: O_12  and  C_33
REMARK    6  A    between atoms: C_17  and  C_19
REMARK    7  A    between atoms: C_21  and  C_23
REMARK                            x       y       z     vdW  Elec       q    Type
REMARK                         _______ _______ _______ _____ _____    ______ ____
ROOT
ATOM      1  C   UNL     1     106.312 125.364 146.894  0.00  0.00    +0.000 A 
ATOM      2  C   UNL     1     105.877 125.015 147.504  0.00  0.00    +0.000 A 
ATOM      3  C   UNL     1     107.131 125.428 146.958  0.00  0.00    +0.000 A 
ATOM      4  C   UNL     1     106.263 124.731 148.175  0.00  0.00    +0.000 A 
ATOM      5  C   UNL     1     107.517 125.143 147.629  0.00  0.00    +0.000 A 
ATOM      6  C   UNL     1     107.083 124.795 148.237  0.00  0.00    +0.000 A 
ENDROOT
BRANCH   2  10
ATOM      7  O   UNL     1     104.723 124.320 147.026  0.00  0.00    +0.000 OA
ATOM      8  O   UNL     1     103.263 126.020 148.076  0.00  0.00    +0.000 OA
ATOM      9  O   UNL     1     102.082 125.339 147.606  0.00  0.00    +0.000 OA
ATOM     10  C   UNL     1     105.057 124.952 147.440  0.00  0.00    +0.000 A 
ATOM     11  C   UNL     1     104.570 125.518 147.790  0.00  0.00    +0.000 A 
ATOM     12  C   UNL     1     103.904 124.256 146.962  0.00  0.00    +0.000 A 
ATOM     13  C   UNL     1     103.417 124.823 147.312  0.00  0.00    +0.000 A 
ATOM     14  C   UNL     1     103.750 125.454 147.726  0.00  0.00    +0.000 A 
ATOM     15  C   UNL     1     103.569 123.594 146.528  0.00  0.00    +0.000 A 
ATOM     16  C   UNL     1     102.561 124.767 147.253  0.00  0.00    +0.000 A 
ATOM     17  C   UNL     1     102.715 123.522 146.459  0.00  0.00    +0.000 A 
ATOM     18  C   UNL     1     102.208 124.112 146.823  0.00  0.00    +0.000 A 
BRANCH  15  19
ATOM     19  O   UNL     1     104.063 123.032 146.182  0.00  0.00    +0.000 OA
ATOM     20  C   UNL     1     104.034 122.904 145.367  0.00  0.00    +0.000 C 
ENDBRANCH  15  19
BRANCH  17  21
ATOM     21  O   UNL     1     102.385 122.889 146.044  0.00  0.00    +0.000 OA
ATOM     22  C   UNL     1     101.572 122.751 146.081  0.00  0.00    +0.000 C 
ENDBRANCH  17  21
ENDBRANCH   2  10
BRANCH   4  23
ATOM     23  O   UNL     1     105.828 124.382 148.783  0.00  0.00    +0.000 OA
ATOM     24  C   UNL     1     106.208 124.139 149.474  0.00  0.00    +0.000 C 
ENDBRANCH   4  23
BRANCH   1  25
ATOM     25  O   UNL     1     105.926 125.649 146.223  0.00  0.00    +0.000 OA
BRANCH  25  34
ATOM     26  O   UNL     1     106.477 126.963 146.109  0.00  0.00    +0.000 OA
ATOM     27  O   UNL     1     106.925 126.567 143.707  0.00  0.00    +0.000 OA
ATOM     28  O   UNL     1     106.224 125.385 144.622  0.00  0.00    +0.000 OA
ATOM     29  O   UNL     1     107.326 128.012 144.394  0.00  0.00    +0.000 OA
ATOM     30  C   UNL     1     106.775 126.699 144.508  0.00  0.00    +0.000 C 
ATOM     31  C   UNL     1     106.425 126.107 144.966  0.00  0.00    +0.000 C 
ATOM     32  C   UNL     1     106.976 127.421 144.852  0.00  0.00    +0.000 C 
ATOM     33  C   UNL     1     106.827 127.553 145.652  0.00  0.00    +0.000 C 
ATOM     34  C   UNL     1     106.276 126.240 145.766  0.00  0.00    +0.000 C 
BRANCH  33  37
ATOM     35  O   UNL     1     106.445 128.842 146.138  0.00  0.00    +0.000 OA
ATOM     36  O   UNL     1     107.812 128.433 146.195  0.00  0.00    +0.000 OA
ATOM     37  C   UNL     1     107.028 128.276 145.995  0.00  0.00    +0.000 C 
ENDBRANCH  33  37
ENDBRANCH  25  34
ENDBRANCH   1  25
TORSDOF 7
ENDMDL
MODEL 3
REMARK VINA RESULT:      -8.6      0.905      2.063
REMARK  Name = 44258547
REMARK  7 active torsions:
REMARK  status: ('A' for Active; 'I' for Inactive)
REMARK    1  A    between atoms: O_2  and  C_18
REMARK    2  A    between atoms: O_2  and  C_20
REMARK    3  A    between atoms: O_9  and  C_24
REMARK    4  A    between atoms: O_10  and  C_31
REMARK    5  A    between atoms: O_12  and  C_33
REMARK    6  A    between atoms: C_17  and  C_19
REMARK    7  A    between atoms: C_21  and  C_23
REMARK                            x       y       z     vdW  Elec       q    Type
REMARK                         _______ _______ _______ _____ _____    ______ ____
ROOT
ATOM      1  C   UNL     1     111.536 126.315 136.290  0.00  0.00    +0.000 A 
ATOM      2  C   UNL     1     111.748 125.737 136.840  0.00  0.00    +0.000 A 
ATOM      3  C   UNL     1     111.175 126.096 135.581  0.00  0.00    +0.000 A 
ATOM      4  C   UNL     1     111.598 124.941 136.681  0.00  0.00    +0.000 A 
ATOM      5  C   UNL     1     111.026 125.300 135.422  0.00  0.00    +0.000 A 
ATOM      6  C   UNL     1     111.237 124.724 135.972  0.00  0.00    +0.000 A 
ENDROOT
BRANCH   2  10
ATOM      7  O   UNL     1     111.646 126.168 138.199  0.00  0.00    +0.000 OA
ATOM      8  O   UNL     1     114.114 126.187 138.378  0.00  0.00    +0.000 OA
ATOM      9  O   UNL     1     114.040 126.623 139.751  0.00  0.00    +0.000 OA
ATOM     10  C   UNL     1     112.109 125.955 137.549  0.00  0.00    +0.000 A 
ATOM     11  C   UNL     1     112.931 125.962 137.609  0.00  0.00    +0.000 A 
ATOM     12  C   UNL     1     112.007 126.387 138.907  0.00  0.00    +0.000 A 
ATOM     13  C   UNL     1     112.829 126.393 138.967  0.00  0.00    +0.000 A 
ATOM     14  C   UNL     1     113.291 126.181 138.318  0.00  0.00    +0.000 A 
ATOM     15  C   UNL     1     111.513 126.607 139.577  0.00  0.00    +0.000 A 
ATOM     16  C   UNL     1     113.217 126.619 139.701  0.00  0.00    +0.000 A 
ATOM     17  C   UNL     1     111.884 126.835 140.318  0.00  0.00    +0.000 A 
ATOM     18  C   UNL     1     112.740 126.842 140.380  0.00  0.00    +0.000 A 
BRANCH  15  19
ATOM     19  O   UNL     1     110.692 126.597 139.508  0.00  0.00    +0.000 OA
ATOM     20  C   UNL     1     110.251 126.022 139.903  0.00  0.00    +0.000 C 
ENDBRANCH  15  19
BRANCH  17  21
ATOM     21  O   UNL     1     111.418 127.048 140.965  0.00  0.00    +0.000 OA
ATOM     22  C   UNL     1     111.747 127.482 141.585  0.00  0.00    +0.000 C 
ENDBRANCH  17  21
ENDBRANCH   2  10
BRANCH   4  23
ATOM     23  O   UNL     1     111.809 124.364 137.231  0.00  0.00    +0.000 OA
ATOM     24  C   UNL     1     111.746 123.565 137.035  0.00  0.00    +0.000 C 
ENDBRANCH   4  23
BRANCH   1  25
ATOM     25  O   UNL     1     111.686 127.110 136.449  0.00  0.00    +0.000 OA
BRANCH  25  34
ATOM     26  O   UNL     1     110.394 127.704 136.306  0.00  0.00    +0.000 OA
ATOM     27  O   UNL     1     111.351 129.423 134.804  0.00  0.00    +0.000 OA
ATOM     28  O   UNL     1     112.324 128.256 135.447  0.00  0.00    +0.000 OA
ATOM     29  O   UNL     1     109.740 129.444 135.162  0.00  0.00    +0.000 OA
ATOM     30  C   UNL     1     111.032 128.850 135.304  0.00  0.00    +0.000 C 
ATOM     31  C   UNL     1     111.519 128.266 135.627  0.00  0.00    +0.000 C 
ATOM     32  C   UNL     1     110.227 128.860 135.484  0.00  0.00    +0.000 C 
ATOM     33  C   UNL     1     109.908 128.287 135.985  0.00  0.00    +0.000 C 
ATOM     34  C   UNL     1     111.200 127.693 136.127  0.00  0.00    +0.000 C 
BRANCH  33  37
ATOM     35  O   UNL     1     108.555 128.012 135.618  0.00  0.00    +0.000 OA
ATOM     36  O   UNL     1     108.846 128.597 136.888  0.00  0.00    +0.000 OA
ATOM     37  C   UNL     1     109.103 128.299 136.163  0.00  0.00    +0.000 C 
ENDBRANCH  33  37
ENDBRANCH  25  34
ENDBRANCH   1  25
TORSDOF 7
ENDMDL
MODEL 4
REMARK VINA RESULT:      -8.6      1.764      2.761
REMARK  Name = 44258547
REMARK  7 active torsions:
REMARK  status: ('A' for Active; 'I' for Inactive)
REMARK    1  A    between atoms: O_2  and  C_18
REMARK    2  A    between atoms: O_2  and  C_20
REMARK    3  A    between atoms: O_9  and  C_24
REMARK    4  A    between atoms: O_10  and  C_31
REMARK    5  A    between atoms: O_12  and  C_33
REMARK    6  A    between atoms: C_17  and  C_19
REMARK    7  A    between atoms: C_21  and  C_23
REMARK                            x       y       z     vdW  Elec       q    Type
REMARK                         _______ _______ _______ _____ _____    ______ ____
ROOT
ATOM      1  C   UNL     1     111.906 128.032 135.636  0.00  0.00    +0.000 A 
ATOM      2  C   UNL     1     112.675 128.121 135.922  0.00  0.00    +0.000 A 
ATOM      3  C   UNL     1     111.643 128.502 135.011  0.00  0.00    +0.000 A 
ATOM      4  C   UNL     1     113.180 128.679 135.584  0.00  0.00    +0.000 A 
ATOM      5  C   UNL     1     112.147 129.060 134.673  0.00  0.00    +0.000 A 
ATOM      6  C   UNL     1     112.915 129.149 134.959  0.00  0.00    +0.000 A 
ENDROOT
BRANCH   2  10
ATOM      7  O   UNL     1     112.853 127.915 137.325  0.00  0.00    +0.000 OA
ATOM      8  O   UNL     1     113.896 125.717 136.869  0.00  0.00    +0.000 OA
ATOM      9  O   UNL     1     114.089 125.483 138.279  0.00  0.00    +0.000 OA
ATOM     10  C   UNL     1     112.938 127.651 136.547  0.00  0.00    +0.000 A 
ATOM     11  C   UNL     1     113.286 126.919 136.395  0.00  0.00    +0.000 A 
ATOM     12  C   UNL     1     113.117 127.445 137.950  0.00  0.00    +0.000 A 
ATOM     13  C   UNL     1     113.464 126.712 137.798  0.00  0.00    +0.000 A 
ATOM     14  C   UNL     1     113.549 126.450 137.021  0.00  0.00    +0.000 A 
ATOM     15  C   UNL     1     113.023 127.731 138.756  0.00  0.00    +0.000 A 
ATOM     16  C   UNL     1     113.742 126.214 138.441  0.00  0.00    +0.000 A 
ATOM     17  C   UNL     1     113.295 127.245 139.411  0.00  0.00    +0.000 A 
ATOM     18  C   UNL     1     113.657 126.483 139.252  0.00  0.00    +0.000 A 
BRANCH  15  19
ATOM     19  O   UNL     1     112.674 128.464 138.898  0.00  0.00    +0.000 OA
ATOM     20  C   UNL     1     111.950 128.507 139.291  0.00  0.00    +0.000 C 
ENDBRANCH  15  19
BRANCH  17  21
ATOM     21  O   UNL     1     113.209 127.512 140.187  0.00  0.00    +0.000 OA
ATOM     22  C   UNL     1     113.671 127.186 140.788  0.00  0.00    +0.000 C 
ENDBRANCH  17  21
ENDBRANCH   2  10
BRANCH   4  23
ATOM     23  O   UNL     1     113.947 128.768 135.871  0.00  0.00    +0.000 OA
ATOM     24  C   UNL     1     114.450 129.330 135.537  0.00  0.00    +0.000 C 
ENDBRANCH   4  23
BRANCH   1  25
ATOM     25  O   UNL     1     111.401 127.474 135.974  0.00  0.00    +0.000 OA
BRANCH  25  34
ATOM     26  O   UNL     1     110.264 128.286 136.273  0.00  0.00    +0.000 OA
ATOM     27  O   UNL     1     108.779 126.568 135.288  0.00  0.00    +0.000 OA
ATOM     28  O   UNL     1     110.411 126.329 135.317  0.00  0.00    +0.000 OA
ATOM     29  O   UNL     1     108.136 127.952 135.916  0.00  0.00    +0.000 OA
ATOM     30  C   UNL     1     109.274 127.141 135.616  0.00  0.00    +0.000 C 
ATOM     31  C   UNL     1     110.091 127.021 135.631  0.00  0.00    +0.000 C 
ATOM     32  C   UNL     1     108.953 127.833 135.930  0.00  0.00    +0.000 C 
ATOM     33  C   UNL     1     109.448 128.405 136.259  0.00  0.00    +0.000 C 
ATOM     34  C   UNL     1     110.586 127.594 135.959  0.00  0.00    +0.000 C 
BRANCH  33  37
ATOM     35  O   UNL     1     108.886 129.705 136.071  0.00  0.00    +0.000 OA
ATOM     36  O   UNL     1     109.045 129.180 137.390  0.00  0.00    +0.000 OA
ATOM     37  C   UNL     1     109.126 129.097 136.573  0.00  0.00    +0.000 C 
ENDBRANCH  33  37
ENDBRANCH  25  34
ENDBRANCH   1  25
TORSDOF 7
ENDMDL
MODEL 5
REMARK VINA RESULT:      -8.6      1.740      4.877
REMARK  Name = 44258547
REMARK  7 active torsions:
REMARK  status: ('A' for Active; 'I' for Inactive)
REMARK    1  A    between atoms: O_2  and  C_18
REMARK    2  A    between atoms: O_2  and  C_20
REMARK    3  A    between atoms: O_9  and  C_24
REMARK    4  A    between atoms: O_10  and  C_31
REMARK    5  A    between atoms: O_12  and  C_33
REMARK    6  A    between atoms: C_17  and  C_19
REMARK    7  A    between atoms: C_21  and  C_23
REMARK                            x       y       z     vdW  Elec       q    Type
REMARK                         _______ _______ _______ _____ _____    ______ ____
ROOT
ATOM      1  C   UNL     1     112.871 127.833 136.699  0.00  0.00    +0.000 A 
ATOM      2  C   UNL     1     112.973 128.535 136.276  0.00  0.00    +0.000 A 
ATOM      3  C   UNL     1     113.437 127.235 136.647  0.00  0.00    +0.000 A 
ATOM      4  C   UNL     1     113.640 128.638 135.801  0.00  0.00    +0.000 A 
ATOM      5  C   UNL     1     114.104 127.338 136.172  0.00  0.00    +0.000 A 
ATOM      6  C   UNL     1     114.205 128.039 135.750  0.00  0.00    +0.000 A 
ENDROOT
BRANCH   2  10
ATOM      7  O   UNL     1     111.790 129.166 135.781  0.00  0.00    +0.000 OA
ATOM      8  O   UNL     1     111.942 130.861 137.578  0.00  0.00    +0.000 OA
ATOM      9  O   UNL     1     110.750 131.517 137.099  0.00  0.00    +0.000 OA
ATOM     10  C   UNL     1     112.408 129.133 136.329  0.00  0.00    +0.000 A 
ATOM     11  C   UNL     1     112.458 129.698 136.927  0.00  0.00    +0.000 A 
ATOM     12  C   UNL     1     111.225 129.764 135.833  0.00  0.00    +0.000 A 
ATOM     13  C   UNL     1     111.275 130.329 136.432  0.00  0.00    +0.000 A 
ATOM     14  C   UNL     1     111.892 130.296 136.979  0.00  0.00    +0.000 A 
ATOM     15  C   UNL     1     110.587 129.787 135.257  0.00  0.00    +0.000 A 
ATOM     16  C   UNL     1     110.691 130.957 136.497  0.00  0.00    +0.000 A 
ATOM     17  C   UNL     1     109.994 130.407 135.307  0.00  0.00    +0.000 A 
ATOM     18  C   UNL     1     110.047 130.996 135.930  0.00  0.00    +0.000 A 
BRANCH  15  19
ATOM     19  O   UNL     1     110.544 129.218 134.662  0.00  0.00    +0.000 OA
ATOM     20  C   UNL     1     109.929 128.667 134.661  0.00  0.00    +0.000 C 
ENDBRANCH  15  19
BRANCH  17  21
ATOM     21  O   UNL     1     109.379 130.437 134.758  0.00  0.00    +0.000 OA
ATOM     22  C   UNL     1     108.989 131.150 134.614  0.00  0.00    +0.000 C 
ENDBRANCH  17  21
ENDBRANCH   2  10
BRANCH   4  23
ATOM     23  O   UNL     1     113.741 129.338 135.379  0.00  0.00    +0.000 OA
ATOM     24  C   UNL     1     114.403 129.437 134.897  0.00  0.00    +0.000 C 
ENDBRANCH   4  23
BRANCH   1  25
ATOM     25  O   UNL     1     112.204 127.730 137.174  0.00  0.00    +0.000 OA
BRANCH  25  34
ATOM     26  O   UNL     1     111.698 126.474 136.720  0.00  0.00    +0.000 OA
ATOM     27  O   UNL     1     111.555 125.685 139.061  0.00  0.00    +0.000 OA
ATOM     28  O   UNL     1     112.109 127.205 138.735  0.00  0.00    +0.000 OA
ATOM     29  O   UNL     1     111.097 124.691 137.827  0.00  0.00    +0.000 OA
ATOM     30  C   UNL     1     111.603 125.948 138.281  0.00  0.00    +0.000 C 
ATOM     31  C   UNL     1     111.880 126.708 138.117  0.00  0.00    +0.000 C 
ATOM     32  C   UNL     1     111.374 125.452 137.663  0.00  0.00    +0.000 C 
ATOM     33  C   UNL     1     111.421 125.714 136.883  0.00  0.00    +0.000 C 
ATOM     34  C   UNL     1     111.928 126.971 137.337  0.00  0.00    +0.000 C 
BRANCH  33  37
ATOM     35  O   UNL     1     111.680 124.594 136.034  0.00  0.00    +0.000 OA
ATOM     36  O   UNL     1     110.473 125.343 135.880  0.00  0.00    +0.000 OA
ATOM     37  C   UNL     1     111.192 125.217 136.266  0.00  0.00    +0.000 C 
ENDBRANCH  33  37
ENDBRANCH  25  34
ENDBRANCH   1  25
TORSDOF 7
ENDMDL
MODEL 6
REMARK VINA RESULT:      -8.6      2.296      4.691
REMARK  Name = 44258547
REMARK  7 active torsions:
REMARK  status: ('A' for Active; 'I' for Inactive)
REMARK    1  A    between atoms: O_2  and  C_18
REMARK    2  A    between atoms: O_2  and  C_20
REMARK    3  A    between atoms: O_9  and  C_24
REMARK    4  A    between atoms: O_10  and  C_31
REMARK    5  A    between atoms: O_12  and  C_33
REMARK    6  A    between atoms: C_17  and  C_19
REMARK    7  A    between atoms: C_21  and  C_23
REMARK                            x       y       z     vdW  Elec       q    Type
REMARK                         _______ _______ _______ _____ _____    ______ ____
ROOT
ATOM      1  C   UNL     1     113.367 129.586 136.965  0.00  0.00    +0.000 A 
ATOM      2  C   UNL     1     113.527 129.075 136.336  0.00  0.00    +0.000 A 
ATOM      3  C   UNL     1     113.810 130.276 137.058  0.00  0.00    +0.000 A 
ATOM      4  C   UNL     1     114.129 129.255 135.801  0.00  0.00    +0.000 A 
ATOM      5  C   UNL     1     114.412 130.455 136.523  0.00  0.00    +0.000 A 
ATOM      6  C   UNL     1     114.571 129.945 135.895  0.00  0.00    +0.000 A 
ENDROOT
BRANCH   2  10
ATOM      7  O   UNL     1     113.337 127.683 136.596  0.00  0.00    +0.000 OA
ATOM      8  O   UNL     1     111.253 127.719 135.261  0.00  0.00    +0.000 OA
ATOM      9  O   UNL     1     111.037 126.314 135.507  0.00  0.00    +0.000 OA
ATOM     10  C   UNL     1     113.084 128.386 136.243  0.00  0.00    +0.000 A 
ATOM     11  C   UNL     1     112.390 128.398 135.798  0.00  0.00    +0.000 A 
ATOM     12  C   UNL     1     112.894 126.993 136.503  0.00  0.00    +0.000 A 
ATOM     13  C   UNL     1     112.199 127.005 136.058  0.00  0.00    +0.000 A 
ATOM     14  C   UNL     1     111.948 127.707 135.706  0.00  0.00    +0.000 A 
ATOM     15  C   UNL     1     113.168 126.268 136.875  0.00  0.00    +0.000 A 
ATOM     16  C   UNL     1     111.730 126.293 135.954  0.00  0.00    +0.000 A 
ATOM     17  C   UNL     1     112.710 125.546 136.782  0.00  0.00    +0.000 A 
ATOM     18  C   UNL     1     111.987 125.559 136.318  0.00  0.00    +0.000 A 
BRANCH  15  19
ATOM     19  O   UNL     1     113.863 126.266 137.318  0.00  0.00    +0.000 OA
ATOM     20  C   UNL     1     113.835 126.113 138.129  0.00  0.00    +0.000 C 
ENDBRANCH  15  19
BRANCH  17  21
ATOM     21  O   UNL     1     112.966 124.846 137.136  0.00  0.00    +0.000 OA
ATOM     22  C   UNL     1     112.684 124.120 136.863  0.00  0.00    +0.000 C 
ENDBRANCH  17  21
ENDBRANCH   2  10
BRANCH   4  23
ATOM     23  O   UNL     1     114.288 128.745 135.173  0.00  0.00    +0.000 OA
ATOM     24  C   UNL     1     114.878 128.934 134.628  0.00  0.00    +0.000 C 
ENDBRANCH   4  23
BRANCH   1  25
ATOM     25  O   UNL     1     112.765 129.406 137.499  0.00  0.00    +0.000 OA
BRANCH  25  34
ATOM     26  O   UNL     1     113.431 129.531 138.758  0.00  0.00    +0.000 OA
ATOM     27  O   UNL     1     111.594 130.968 139.587  0.00  0.00    +0.000 OA
ATOM     28  O   UNL     1     111.541 130.365 138.052  0.00  0.00    +0.000 OA
ATOM     29  O   UNL     1     112.871 130.613 140.569  0.00  0.00    +0.000 OA
ATOM     30  C   UNL     1     112.206 130.489 139.310  0.00  0.00    +0.000 C 
ATOM     31  C   UNL     1     112.180 130.187 138.542  0.00  0.00    +0.000 C 
ATOM     32  C   UNL     1     112.845 130.311 139.801  0.00  0.00    +0.000 C 
ATOM     33  C   UNL     1     113.457 129.832 139.525  0.00  0.00    +0.000 C 
ATOM     34  C   UNL     1     112.792 129.708 138.266  0.00  0.00    +0.000 C 
BRANCH  33  37
ATOM     35  O   UNL     1     114.695 130.209 140.131  0.00  0.00    +0.000 OA
ATOM     36  O   UNL     1     114.134 128.923 140.395  0.00  0.00    +0.000 OA
ATOM     37  C   UNL     1     114.096 129.655 140.017  0.00  0.00    +0.000 C 
ENDBRANCH  33  37
ENDBRANCH  25  34
ENDBRANCH   1  25
TORSDOF 7
ENDMDL
MODEL 7
REMARK VINA RESULT:      -8.6      1.546      4.416
REMARK  Name = 44258547
REMARK  7 active torsions:
REMARK  status: ('A' for Active; 'I' for Inactive)
REMARK    1  A    between atoms: O_2  and  C_18
REMARK    2  A    between atoms: O_2  and  C_20
REMARK    3  A    between atoms: O_9  and  C_24
REMARK    4  A    between atoms: O_10  and  C_31
REMARK    5  A    between atoms: O_12  and  C_33
REMARK    6  A    between atoms: C_17  and  C_19
REMARK    7  A    between atoms: C_21  and  C_23
REMARK                            x       y       z     vdW  Elec       q    Type
REMARK                         _______ _______ _______ _____ _____    ______ ____
ROOT
ATOM      1  C   UNL     1     113.121 126.031 138.129  0.00  0.00    +0.000 A 
ATOM      2  C   UNL     1     113.223 125.894 137.321  0.00  0.00    +0.000 A 
ATOM      3  C   UNL     1     113.751 125.916 138.649  0.00  0.00    +0.000 A 
ATOM      4  C   UNL     1     113.955 125.643 137.034  0.00  0.00    +0.000 A 
ATOM      5  C   UNL     1     114.483 125.665 138.362  0.00  0.00    +0.000 A 
ATOM      6  C   UNL     1     114.584 125.529 137.555  0.00  0.00    +0.000 A 
ENDROOT
BRANCH   2  10
ATOM      7  O   UNL     1     112.438 126.762 136.501  0.00  0.00    +0.000 OA
ATOM      8  O   UNL     1     111.012 124.850 135.841  0.00  0.00    +0.000 OA
ATOM      9  O   UNL     1     110.203 125.704 135.006  0.00  0.00    +0.000 OA
ATOM     10  C   UNL     1     112.593 126.009 136.801  0.00  0.00    +0.000 A 
ATOM     11  C   UNL     1     112.117 125.372 136.581  0.00  0.00    +0.000 A 
ATOM     12  C   UNL     1     111.808 126.877 135.981  0.00  0.00    +0.000 A 
ATOM     13  C   UNL     1     111.333 126.240 135.761  0.00  0.00    +0.000 A 
ATOM     14  C   UNL     1     111.487 125.488 136.061  0.00  0.00    +0.000 A 
ATOM     15  C   UNL     1     111.658 127.667 135.675  0.00  0.00    +0.000 A 
ATOM     16  C   UNL     1     110.673 126.348 135.220  0.00  0.00    +0.000 A 
ATOM     17  C   UNL     1     111.003 127.793 135.133  0.00  0.00    +0.000 A 
ATOM     18  C   UNL     1     110.508 127.129 134.904  0.00  0.00    +0.000 A 
BRANCH  15  19
ATOM     19  O   UNL     1     112.138 128.297 135.900  0.00  0.00    +0.000 OA
ATOM     20  C   UNL     1     112.656 128.637 135.354  0.00  0.00    +0.000 C 
ENDBRANCH  15  19
BRANCH  17  21
ATOM     21  O   UNL     1     110.851 128.547 134.835  0.00  0.00    +0.000 OA
ATOM     22  C   UNL     1     110.084 128.756 134.612  0.00  0.00    +0.000 C 
ENDBRANCH  17  21
ENDBRANCH   2  10
BRANCH   4  23
ATOM     23  O   UNL     1     114.056 125.507 136.227  0.00  0.00    +0.000 OA
ATOM     24  C   UNL     1     114.798 125.293 135.935  0.00  0.00    +0.000 C 
ENDBRANCH   4  23
BRANCH   1  25
ATOM     25  O   UNL     1     112.389 126.282 138.416  0.00  0.00    +0.000 OA
BRANCH  25  34
ATOM     26  O   UNL     1     112.752 127.447 139.159  0.00  0.00    +0.000 OA
ATOM     27  O   UNL     1     111.423 126.634 141.082  0.00  0.00    +0.000 OA
ATOM     28  O   UNL     1     111.503 125.739 139.698  0.00  0.00    +0.000 OA
ATOM     29  O   UNL     1     112.228 128.070 141.184  0.00  0.00    +0.000 OA
ATOM     30  C   UNL     1     111.866 126.905 140.441  0.00  0.00    +0.000 C 
ATOM     31  C   UNL     1     111.906 126.457 139.748  0.00  0.00    +0.000 C 
ATOM     32  C   UNL     1     112.268 127.623 140.492  0.00  0.00    +0.000 C 
ATOM     33  C   UNL     1     112.711 127.894 139.851  0.00  0.00    +0.000 C 
ATOM     34  C   UNL     1     112.349 126.728 139.107  0.00  0.00    +0.000 C 
BRANCH  33  37
ATOM     35  O   UNL     1     112.798 129.289 139.554  0.00  0.00    +0.000 OA
ATOM     36  O   UNL     1     113.834 128.653 140.303  0.00  0.00    +0.000 OA
ATOM     37  C   UNL     1     113.114 128.612 139.902  0.00  0.00    +0.000 C 
ENDBRANCH  33  37
ENDBRANCH  25  34
ENDBRANCH   1  25
TORSDOF 7
ENDMDL
MODEL 8
REMARK VINA RESULT:      -8.5      2.447      4.560
REMARK  Name = 44258547
REMARK  7 active torsions:
REMARK  status: ('A' for Active; 'I' for Inactive)
REMARK    1  A    between atoms: O_2  and  C_18
REMARK    2  A    between atoms: O_2  and  C_20
REMARK    3  A    between atoms: O_9  and  C_24
REMARK    4  A    between atoms: O_10  and  C_31
REMARK    5  A    between atoms: O_12  and  C_33
REMARK    6  A    between atoms: C_17  and  C_19
REMARK    7  A    between atoms: C_21  and  C_23
REMARK                            x       y       z     vdW  Elec       q    Type
REMARK                         _______ _______ _______ _____ _____    ______ ____
ROOT
ATOM      1  C   UNL     1     113.250 129.739 136.844  0.00  0.00    +0.000 A 
ATOM      2  C   UNL     1     113.477 129.183 136.278  0.00  0.00    +0.000 A 
ATOM      3  C   UNL     1     113.621 130.476 136.870  0.00  0.00    +0.000 A 
ATOM      4  C   UNL     1     114.074 129.364 135.738  0.00  0.00    +0.000 A 
ATOM      5  C   UNL     1     114.219 130.656 136.331  0.00  0.00    +0.000 A 
ATOM      6  C   UNL     1     114.445 130.101 135.765  0.00  0.00    +0.000 A 
ENDROOT
BRANCH   2  10
ATOM      7  O   UNL     1     112.433 128.341 135.785  0.00  0.00    +0.000 OA
ATOM      8  O   UNL     1     113.334 126.452 137.105  0.00  0.00    +0.000 OA
ATOM      9  O   UNL     1     112.292 125.579 136.623  0.00  0.00    +0.000 OA
ATOM     10  C   UNL     1     113.106 128.447 136.252  0.00  0.00    +0.000 A 
ATOM     11  C   UNL     1     113.406 127.817 136.692  0.00  0.00    +0.000 A 
ATOM     12  C   UNL     1     112.062 127.605 135.759  0.00  0.00    +0.000 A 
ATOM     13  C   UNL     1     112.362 126.975 136.199  0.00  0.00    +0.000 A 
ATOM     14  C   UNL     1     113.034 127.081 136.665  0.00  0.00    +0.000 A 
ATOM     15  C   UNL     1     111.362 127.507 135.268  0.00  0.00    +0.000 A 
ATOM     16  C   UNL     1     111.984 126.203 136.180  0.00  0.00    +0.000 A 
ATOM     17  C   UNL     1     110.971 126.742 135.237  0.00  0.00    +0.000 A 
ATOM     18  C   UNL     1     111.284 126.087 135.696  0.00  0.00    +0.000 A 
BRANCH  15  19
ATOM     19  O   UNL     1     111.070 128.142 134.832  0.00  0.00    +0.000 OA
ATOM     20  C   UNL     1     110.317 128.441 134.993  0.00  0.00    +0.000 C 
ENDBRANCH  15  19
BRANCH  17  21
ATOM     21  O   UNL     1     110.299 126.640 134.769  0.00  0.00    +0.000 OA
ATOM     22  C   UNL     1     110.019 125.880 134.612  0.00  0.00    +0.000 C 
ENDBRANCH  17  21
ENDBRANCH   2  10
BRANCH   4  23
ATOM     23  O   UNL     1     114.300 128.809 135.172  0.00  0.00    +0.000 OA
ATOM     24  C   UNL     1     114.876 129.000 134.613  0.00  0.00    +0.000 C 
ENDBRANCH   4  23
BRANCH   1  25
ATOM     25  O   UNL     1     112.653 129.559 137.384  0.00  0.00    +0.000 OA
BRANCH  25  34
ATOM     26  O   UNL     1     111.782 130.676 137.194  0.00  0.00    +0.000 OA
ATOM     27  O   UNL     1     111.582 130.938 139.646  0.00  0.00    +0.000 OA
ATOM     28  O   UNL     1     112.519 129.733 139.019  0.00  0.00    +0.000 OA
ATOM     29  O   UNL     1     110.778 131.967 138.638  0.00  0.00    +0.000 OA
ATOM     30  C   UNL     1     111.649 130.850 138.829  0.00  0.00    +0.000 C 
ATOM     31  C   UNL     1     112.118 130.248 138.515  0.00  0.00    +0.000 C 
ATOM     32  C   UNL     1     111.247 131.365 138.324  0.00  0.00    +0.000 C 
ATOM     33  C   UNL     1     111.314 131.277 137.507  0.00  0.00    +0.000 C 
ATOM     34  C   UNL     1     112.185 130.160 137.697  0.00  0.00    +0.000 C 
BRANCH  33  37
ATOM     35  O   UNL     1     111.204 132.552 136.870  0.00  0.00    +0.000 OA
ATOM     36  O   UNL     1     110.217 131.547 136.632  0.00  0.00    +0.000 OA
ATOM     37  C   UNL     1     110.912 131.793 137.003  0.00  0.00    +0.000 C 
ENDBRANCH  33  37
ENDBRANCH  25  34
ENDBRANCH   1  25
TORSDOF 7
ENDMDL
MODEL 9
REMARK VINA RESULT:      -8.5      9.887     12.132
REMARK  Name = 44258547
REMARK  7 active torsions:
REMARK  status: ('A' for Active; 'I' for Inactive)
REMARK    1  A    between atoms: O_2  and  C_18
REMARK    2  A    between atoms: O_2  and  C_20
REMARK    3  A    between atoms: O_9  and  C_24
REMARK    4  A    between atoms: O_10  and  C_31
REMARK    5  A    between atoms: O_12  and  C_33
REMARK    6  A    between atoms: C_17  and  C_19
REMARK    7  A    between atoms: C_21  and  C_23
REMARK                            x       y       z     vdW  Elec       q    Type
REMARK                         _______ _______ _______ _____ _____    ______ ____
ROOT
ATOM      1  C   UNL     1     106.142 125.804 147.223  0.00  0.00    +0.000 A 
ATOM      2  C   UNL     1     105.917 125.541 147.972  0.00  0.00    +0.000 A 
ATOM      3  C   UNL     1     106.903 125.649 146.943  0.00  0.00    +0.000 A 
ATOM      4  C   UNL     1     106.452 125.123 148.441  0.00  0.00    +0.000 A 
ATOM      5  C   UNL     1     107.438 125.231 147.412  0.00  0.00    +0.000 A 
ATOM      6  C   UNL     1     107.212 124.968 148.160  0.00  0.00    +0.000 A 
ENDROOT
BRANCH   2  10
ATOM      7  O   UNL     1     104.543 125.168 148.093  0.00  0.00    +0.000 OA
ATOM      8  O   UNL     1     104.101 127.218 149.408  0.00  0.00    +0.000 OA
ATOM      9  O   UNL     1     102.709 126.865 149.545  0.00  0.00    +0.000 OA
ATOM     10  C   UNL     1     105.157 125.697 148.252  0.00  0.00    +0.000 A 
ATOM     11  C   UNL     1     105.010 126.380 148.690  0.00  0.00    +0.000 A 
ATOM     12  C   UNL     1     103.783 125.323 148.372  0.00  0.00    +0.000 A 
ATOM     13  C   UNL     1     103.635 126.007 148.811  0.00  0.00    +0.000 A 
ATOM     14  C   UNL     1     104.248 126.534 148.969  0.00  0.00    +0.000 A 
ATOM     15  C   UNL     1     103.152 124.764 148.200  0.00  0.00    +0.000 A 
ATOM     16  C   UNL     1     102.847 126.179 149.107  0.00  0.00    +0.000 A 
ATOM     17  C   UNL     1     102.358 124.921 148.489  0.00  0.00    +0.000 A 
ATOM     18  C   UNL     1     102.204 125.633 148.945  0.00  0.00    +0.000 A 
BRANCH  15  19
ATOM     19  O   UNL     1     103.309 124.085 147.761  0.00  0.00    +0.000 OA
ATOM     20  C   UNL     1     102.893 123.939 147.063  0.00  0.00    +0.000 C 
ENDBRANCH  15  19
BRANCH  17  21
ATOM     21  O   UNL     1     101.746 124.390 148.328  0.00  0.00    +0.000 OA
ATOM     22  C   UNL     1     101.031 124.451 148.733  0.00  0.00    +0.000 C 
ENDBRANCH  17  21
ENDBRANCH   2  10
BRANCH   4  23
ATOM     23  O   UNL     1     106.227 124.861 149.189  0.00  0.00    +0.000 OA
ATOM     24  C   UNL     1     106.718 124.350 149.612  0.00  0.00    +0.000 C 
ENDBRANCH   4  23
BRANCH   1  25
ATOM     25  O   UNL     1     105.607 126.222 146.754  0.00  0.00    +0.000 OA
BRANCH  25  34
ATOM     26  O   UNL     1     105.633 125.430 145.565  0.00  0.00    +0.000 OA
ATOM     27  O   UNL     1     105.811 127.486 144.199  0.00  0.00    +0.000 OA
ATOM     28  O   UNL     1     105.726 127.593 145.843  0.00  0.00    +0.000 OA
ATOM     29  O   UNL     1     105.777 126.008 143.465  0.00  0.00    +0.000 OA
ATOM     30  C   UNL     1     105.752 126.800 144.654  0.00  0.00    +0.000 C 
ATOM     31  C   UNL     1     105.709 126.854 145.477  0.00  0.00    +0.000 C 
ATOM     32  C   UNL     1     105.735 126.061 144.288  0.00  0.00    +0.000 C 
ATOM     33  C   UNL     1     105.675 125.376 144.744  0.00  0.00    +0.000 C 
ATOM     34  C   UNL     1     105.650 126.168 145.933  0.00  0.00    +0.000 C 
BRANCH  33  37
ATOM     35  O   UNL     1     104.941 124.245 144.270  0.00  0.00    +0.000 OA
ATOM     36  O   UNL     1     106.360 124.291 144.115  0.00  0.00    +0.000 OA
ATOM     37  C   UNL     1     105.658 124.637 144.376  0.00  0.00    +0.000 C 
ENDBRANCH  33  37
ENDBRANCH  25  34
ENDBRANCH   1  25
TORSDOF 7
ENDMDL
MODEL 10
REMARK VINA RESULT:      -8.5      1.819      3.347
REMARK  Name = 44258547
REMARK  7 active torsions:
REMARK  status: ('A' for Active; 'I' for Inactive)
REMARK    1  A    between atoms: O_2  and  C_18
REMARK    2  A    between atoms: O_2  and  C_20
REMARK    3  A    between atoms: O_9  and  C_24
REMARK    4  A    between atoms: O_10  and  C_31
REMARK    5  A    between atoms: O_12  and  C_33
REMARK    6  A    between atoms: C_17  and  C_19
REMARK    7  A    between atoms: C_21  and  C_23
REMARK                            x       y       z     vdW  Elec       q    Type
REMARK                         _______ _______ _______ _____ _____    ______ ____
ROOT
ATOM      1  C   UNL     1     111.618 129.382 135.913  0.00  0.00    +0.000 A 
ATOM      2  C   UNL     1     112.388 129.330 136.206  0.00  0.00    +0.000 A 
ATOM      3  C   UNL     1     111.471 129.230 135.116  0.00  0.00    +0.000 A 
ATOM      4  C   UNL     1     113.009 129.126 135.703  0.00  0.00    +0.000 A 
ATOM      5  C   UNL     1     112.091 129.025 134.612  0.00  0.00    +0.000 A 
ATOM      6  C   UNL     1     112.860 128.974 134.905  0.00  0.00    +0.000 A 
ENDROOT
BRANCH   2  10
ATOM      7  O   UNL     1     112.542 128.862 137.548  0.00  0.00    +0.000 OA
ATOM      8  O   UNL     1     112.968 131.179 138.307  0.00  0.00    +0.000 OA
ATOM      9  O   UNL     1     113.128 130.734 139.670  0.00  0.00    +0.000 OA
ATOM     10  C   UNL     1     112.536 129.483 137.003  0.00  0.00    +0.000 A 
ATOM     11  C   UNL     1     112.678 130.255 137.256  0.00  0.00    +0.000 A 
ATOM     12  C   UNL     1     112.690 129.015 138.344  0.00  0.00    +0.000 A 
ATOM     13  C   UNL     1     112.832 129.787 138.598  0.00  0.00    +0.000 A 
ATOM     14  C   UNL     1     112.826 130.407 138.054  0.00  0.00    +0.000 A 
ATOM     15  C   UNL     1     112.694 128.359 138.902  0.00  0.00    +0.000 A 
ATOM     16  C   UNL     1     112.987 129.958 139.426  0.00  0.00    +0.000 A 
ATOM     17  C   UNL     1     112.847 128.512 139.733  0.00  0.00    +0.000 A 
ATOM     18  C   UNL     1     112.995 129.317 139.997  0.00  0.00    +0.000 A 
BRANCH  15  19
ATOM     19  O   UNL     1     112.551 127.591 138.639  0.00  0.00    +0.000 OA
ATOM     20  C   UNL     1     111.866 127.196 138.875  0.00  0.00    +0.000 C 
ENDBRANCH  15  19
BRANCH  17  21
ATOM     21  O   UNL     1     112.852 127.890 140.275  0.00  0.00    +0.000 OA
ATOM     22  C   UNL     1     113.191 127.994 141.020  0.00  0.00    +0.000 C 
ENDBRANCH  17  21
ENDBRANCH   2  10
BRANCH   4  23
ATOM     23  O   UNL     1     113.778 129.074 135.996  0.00  0.00    +0.000 OA
ATOM     24  C   UNL     1     114.399 128.870 135.492  0.00  0.00    +0.000 C 
ENDBRANCH   4  23
BRANCH   1  25
ATOM     25  O   UNL     1     110.998 129.587 136.416  0.00  0.00    +0.000 OA
BRANCH  25  34
ATOM     26  O   UNL     1     110.063 128.517 136.258  0.00  0.00    +0.000 OA
ATOM     27  O   UNL     1     108.274 130.154 135.762  0.00  0.00    +0.000 OA
ATOM     28  O   UNL     1     109.805 130.678 136.085  0.00  0.00    +0.000 OA
ATOM     29  O   UNL     1     107.936 128.539 135.770  0.00  0.00    +0.000 OA
ATOM     30  C   UNL     1     108.870 129.608 135.927  0.00  0.00    +0.000 C 
ATOM     31  C   UNL     1     109.637 129.870 136.089  0.00  0.00    +0.000 C 
ATOM     32  C   UNL     1     108.702 128.801 135.931  0.00  0.00    +0.000 C 
ATOM     33  C   UNL     1     109.298 128.255 136.097  0.00  0.00    +0.000 C 
ATOM     34  C   UNL     1     110.233 129.325 136.255  0.00  0.00    +0.000 C 
BRANCH  33  37
ATOM     35  O   UNL     1     108.926 127.071 136.805  0.00  0.00    +0.000 OA
ATOM     36  O   UNL     1     109.161 127.017 135.397  0.00  0.00    +0.000 OA
ATOM     37  C   UNL     1     109.128 127.448 136.100  0.00  0.00    +0.000 C 
ENDBRANCH  33  37
ENDBRANCH  25  34
ENDBRANCH   1  25
TORSDOF 7
ENDMDL
