MODEL 1
REMARK VINA RESULT:     -10.3      0.000      0.000
REMARK  Name = 44259235
REMARK  5 active torsions:
REMARK  status: ('A' for Active; 'I' for Inactive)
REMARK    1  A    between atoms: O_1  and  C_16
REMARK    2  A    between atoms: O_1  and  C_21
REMARK    3  A    between atoms: O_4  and  C_19
REMARK    4  A    between atoms: O_4  and  C_27
REMARK    5  A    between atoms: C_28  and  C_31
REMARK                            x       y       z     vdW  Elec       q    Type
REMARK                         _______ _______ _______ _____ _____    ______ ____
ROOT
ATOM      1  O   UNL     1     113.569 126.118 138.877  0.00  0.00    +0.000 OA
ATOM      2  O   UNL     1     112.501 128.272 138.291  0.00  0.00    +0.000 OA
ATOM      3  O   UNL     1     113.059 128.901 139.463  0.00  0.00    +0.000 OA
ATOM      4  O   UNL     1     114.729 127.321 141.263  0.00  0.00    +0.000 OA
ATOM      5  C   UNL     1     112.753 126.896 138.000  0.00  0.00    +0.000 A 
ATOM      6  C   UNL     1     113.109 126.178 138.195  0.00  0.00    +0.000 A 
ATOM      7  C   UNL     1     112.857 127.555 138.486  0.00  0.00    +0.000 A 
ATOM      8  C   UNL     1     113.317 127.495 139.168  0.00  0.00    +0.000 A 
ATOM      9  C   UNL     1     113.674 126.776 139.364  0.00  0.00    +0.000 A 
ATOM     10  C   UNL     1     113.419 128.187 139.667  0.00  0.00    +0.000 A 
ATOM     11  C   UNL     1     114.155 126.701 140.071  0.00  0.00    +0.000 A 
ATOM     12  C   UNL     1     113.897 128.131 140.379  0.00  0.00    +0.000 A 
ATOM     13  C   UNL     1     114.268 127.383 140.582  0.00  0.00    +0.000 A 
ENDROOT
BRANCH   6  16
ATOM     14  O   UNL     1     111.533 123.950 137.349  0.00  0.00    +0.000 OA
ATOM     15  O   UNL     1     112.695 123.545 136.250  0.00  0.00    +0.000 OA
ATOM     16  C   UNL     1     113.005 125.520 137.709  0.00  0.00    +0.000 A 
ATOM     17  C   UNL     1     112.321 125.064 137.772  0.00  0.00    +0.000 A 
ATOM     18  C   UNL     1     113.586 125.317 137.160  0.00  0.00    +0.000 A 
ATOM     19  C   UNL     1     112.217 124.405 137.286  0.00  0.00    +0.000 A 
ATOM     20  C   UNL     1     113.484 124.659 136.674  0.00  0.00    +0.000 A 
ATOM     21  C   UNL     1     112.798 124.203 136.737  0.00  0.00    +0.000 A 
ENDBRANCH   6  16
BRANCH   5  22
ATOM     22  O   UNL     1     112.293 126.956 137.318  0.00  0.00    +0.000 OA
BRANCH  22  29
ATOM     23  O   UNL     1     113.273 127.655 136.548  0.00  0.00    +0.000 OA
ATOM     24  O   UNL     1     111.474 128.898 135.388  0.00  0.00    +0.000 OA
ATOM     25  O   UNL     1     113.053 129.182 135.004  0.00  0.00    +0.000 OA
ATOM     26  C   UNL     1     111.883 127.927 136.353  0.00  0.00    +0.000 C 
ATOM     27  C   UNL     1     112.074 128.484 135.775  0.00  0.00    +0.000 C 
ATOM     28  C   UNL     1     112.863 128.626 135.583  0.00  0.00    +0.000 C 
ATOM     29  C   UNL     1     112.483 127.513 136.739  0.00  0.00    +0.000 C 
ATOM     30  C   UNL     1     113.462 128.211 135.969  0.00  0.00    +0.000 C 
ATOM     31  C   UNL     1     114.252 128.354 135.777  0.00  0.00    +0.000 C 
BRANCH  26  32
ATOM     32  O   UNL     1     111.094 127.785 136.545  0.00  0.00    +0.000 OA
BRANCH  32  37
ATOM     33  O   UNL     1     110.968 126.940 135.399  0.00  0.00    +0.000 OA
ATOM     34  O   UNL     1     109.504 127.532 136.906  0.00  0.00    +0.000 OA
ATOM     35  O   UNL     1     108.583 126.561 135.940  0.00  0.00    +0.000 OA
ATOM     36  O   UNL     1     109.252 125.842 134.615  0.00  0.00    +0.000 OA
ATOM     37  C   UNL     1     110.633 127.299 136.062  0.00  0.00    +0.000 C 
ATOM     38  C   UNL     1     109.838 127.173 136.242  0.00  0.00    +0.000 C 
ATOM     39  C   UNL     1     109.378 126.687 135.760  0.00  0.00    +0.000 C 
ATOM     40  C   UNL     1     109.713 126.328 135.097  0.00  0.00    +0.000 C 
ATOM     41  C   UNL     1     110.508 126.454 134.916  0.00  0.00    +0.000 C 
ENDBRANCH  32  37
ENDBRANCH  26  32
ENDBRANCH  22  29
ENDBRANCH   5  22
TORSDOF 5
ENDMDL
MODEL 2
REMARK VINA RESULT:     -10.1      2.627      4.780
REMARK  Name = 44259235
REMARK  5 active torsions:
REMARK  status: ('A' for Active; 'I' for Inactive)
REMARK    1  A    between atoms: O_1  and  C_16
REMARK    2  A    between atoms: O_1  and  C_21
REMARK    3  A    between atoms: O_4  and  C_19
REMARK    4  A    between atoms: O_4  and  C_27
REMARK    5  A    between atoms: C_28  and  C_31
REMARK                            x       y       z     vdW  Elec       q    Type
REMARK                         _______ _______ _______ _____ _____    ______ ____
ROOT
ATOM      1  O   UNL     1     110.515 127.448 135.688  0.00  0.00    +0.000 OA
ATOM      2  O   UNL     1     111.942 127.874 137.664  0.00  0.00    +0.000 OA
ATOM      3  O   UNL     1     112.327 126.484 137.721  0.00  0.00    +0.000 OA
ATOM      4  O   UNL     1     111.247 124.630 135.741  0.00  0.00    +0.000 OA
ATOM      5  C   UNL     1     111.046 128.352 136.659  0.00  0.00    +0.000 A 
ATOM      6  C   UNL     1     110.570 128.210 136.001  0.00  0.00    +0.000 A 
ATOM      7  C   UNL     1     111.467 127.732 137.006  0.00  0.00    +0.000 A 
ATOM      8  C   UNL     1     111.411 126.971 136.694  0.00  0.00    +0.000 A 
ATOM      9  C   UNL     1     110.935 126.829 136.034  0.00  0.00    +0.000 A 
ATOM     10  C   UNL     1     111.853 126.333 137.062  0.00  0.00    +0.000 A 
ATOM     11  C   UNL     1     110.869 126.040 135.700  0.00  0.00    +0.000 A 
ATOM     12  C   UNL     1     111.800 125.538 136.742  0.00  0.00    +0.000 A 
ATOM     13  C   UNL     1     111.304 125.391 136.056  0.00  0.00    +0.000 A 
ENDROOT
BRANCH   6  16
ATOM     14  O   UNL     1     108.262 129.894 135.916  0.00  0.00    +0.000 OA
ATOM     15  O   UNL     1     108.889 130.687 134.612  0.00  0.00    +0.000 OA
ATOM     16  C   UNL     1     110.149 128.829 135.654  0.00  0.00    +0.000 A 
ATOM     17  C   UNL     1     109.416 129.052 135.958  0.00  0.00    +0.000 A 
ATOM     18  C   UNL     1     110.463 129.226 135.002  0.00  0.00    +0.000 A 
ATOM     19  C   UNL     1     108.995 129.671 135.612  0.00  0.00    +0.000 A 
ATOM     20  C   UNL     1     110.043 129.845 134.655  0.00  0.00    +0.000 A 
ATOM     21  C   UNL     1     109.309 130.068 134.960  0.00  0.00    +0.000 A 
ENDBRANCH   6  16
BRANCH   5  22
ATOM     22  O   UNL     1     111.101 129.113 136.972  0.00  0.00    +0.000 OA
BRANCH  22  29
ATOM     23  O   UNL     1     112.413 129.359 136.461  0.00  0.00    +0.000 OA
ATOM     24  O   UNL     1     112.898 130.812 138.405  0.00  0.00    +0.000 OA
ATOM     25  O   UNL     1     114.048 130.573 137.246  0.00  0.00    +0.000 OA
ATOM     26  C   UNL     1     112.000 129.963 137.689  0.00  0.00    +0.000 C 
ATOM     27  C   UNL     1     112.736 130.327 137.757  0.00  0.00    +0.000 C 
ATOM     28  C   UNL     1     113.311 130.208 137.178  0.00  0.00    +0.000 C 
ATOM     29  C   UNL     1     111.838 129.478 137.041  0.00  0.00    +0.000 C 
ATOM     30  C   UNL     1     113.149 129.724 136.530  0.00  0.00    +0.000 C 
ATOM     31  C   UNL     1     113.725 129.605 135.950  0.00  0.00    +0.000 C 
BRANCH  26  32
ATOM     32  O   UNL     1     111.424 130.082 138.268  0.00  0.00    +0.000 OA
BRANCH  32  37
ATOM     33  O   UNL     1     111.133 131.366 137.713  0.00  0.00    +0.000 OA
ATOM     34  O   UNL     1     110.285 130.327 139.435  0.00  0.00    +0.000 OA
ATOM     35  O   UNL     1     109.423 131.735 139.465  0.00  0.00    +0.000 OA
ATOM     36  O   UNL     1     109.702 132.896 138.326  0.00  0.00    +0.000 OA
ATOM     37  C   UNL     1     110.994 130.785 138.282  0.00  0.00    +0.000 C 
ATOM     38  C   UNL     1     110.424 130.909 138.866  0.00  0.00    +0.000 C 
ATOM     39  C   UNL     1     109.993 131.612 138.880  0.00  0.00    +0.000 C 
ATOM     40  C   UNL     1     110.133 132.192 138.312  0.00  0.00    +0.000 C 
ATOM     41  C   UNL     1     110.702 132.070 137.727  0.00  0.00    +0.000 C 
ENDBRANCH  32  37
ENDBRANCH  26  32
ENDBRANCH  22  29
ENDBRANCH   5  22
TORSDOF 5
ENDMDL
MODEL 3
REMARK VINA RESULT:     -10.1      0.976      2.906
REMARK  Name = 44259235
REMARK  5 active torsions:
REMARK  status: ('A' for Active; 'I' for Inactive)
REMARK    1  A    between atoms: O_1  and  C_16
REMARK    2  A    between atoms: O_1  and  C_21
REMARK    3  A    between atoms: O_4  and  C_19
REMARK    4  A    between atoms: O_4  and  C_27
REMARK    5  A    between atoms: C_28  and  C_31
REMARK                            x       y       z     vdW  Elec       q    Type
REMARK                         _______ _______ _______ _____ _____    ______ ____
ROOT
ATOM      1  O   UNL     1     113.358 128.965 138.320  0.00  0.00    +0.000 OA
ATOM      2  O   UNL     1     112.507 126.816 139.205  0.00  0.00    +0.000 OA
ATOM      3  O   UNL     1     112.984 127.140 140.528  0.00  0.00    +0.000 OA
ATOM      4  O   UNL     1     114.345 129.685 140.963  0.00  0.00    +0.000 OA
ATOM      5  C   UNL     1     112.692 127.719 138.112  0.00  0.00    +0.000 A 
ATOM      6  C   UNL     1     112.975 128.435 137.817  0.00  0.00    +0.000 A 
ATOM      7  C   UNL     1     112.791 127.532 138.910  0.00  0.00    +0.000 A 
ATOM      8  C   UNL     1     113.173 128.063 139.413  0.00  0.00    +0.000 A 
ATOM      9  C   UNL     1     113.457 128.780 139.117  0.00  0.00    +0.000 A 
ATOM     10  C   UNL     1     113.270 127.859 140.241  0.00  0.00    +0.000 A 
ATOM     11  C   UNL     1     113.857 129.341 139.631  0.00  0.00    +0.000 A 
ATOM     12  C   UNL     1     113.668 128.407 140.770  0.00  0.00    +0.000 A 
ATOM     13  C   UNL     1     113.962 129.153 140.463  0.00  0.00    +0.000 A 
ENDROOT
BRANCH   6  16
ATOM     14  O   UNL     1     111.364 129.473 135.698  0.00  0.00    +0.000 OA
ATOM     15  O   UNL     1     112.583 129.179 134.626  0.00  0.00    +0.000 OA
ATOM     16  C   UNL     1     112.877 128.621 137.019  0.00  0.00    +0.000 A 
ATOM     17  C   UNL     1     112.169 128.954 136.757  0.00  0.00    +0.000 A 
ATOM     18  C   UNL     1     113.486 128.474 136.483  0.00  0.00    +0.000 A 
ATOM     19  C   UNL     1     112.071 129.140 135.960  0.00  0.00    +0.000 A 
ATOM     20  C   UNL     1     113.389 128.660 135.686  0.00  0.00    +0.000 A 
ATOM     21  C   UNL     1     112.681 128.993 135.424  0.00  0.00    +0.000 A 
ENDBRANCH   6  16
BRANCH   5  22
ATOM     22  O   UNL     1     112.310 127.188 137.609  0.00  0.00    +0.000 OA
BRANCH  22  29
ATOM     23  O   UNL     1     113.401 126.268 137.535  0.00  0.00    +0.000 OA
ATOM     24  O   UNL     1     111.803 124.391 137.316  0.00  0.00    +0.000 OA
ATOM     25  O   UNL     1     113.427 124.097 137.315  0.00  0.00    +0.000 OA
ATOM     26  C   UNL     1     112.057 125.789 137.463  0.00  0.00    +0.000 C 
ATOM     27  C   UNL     1     112.336 125.016 137.389  0.00  0.00    +0.000 C 
ATOM     28  C   UNL     1     113.147 124.870 137.388  0.00  0.00    +0.000 C 
ATOM     29  C   UNL     1     112.589 126.414 137.535  0.00  0.00    +0.000 C 
ATOM     30  C   UNL     1     113.680 125.495 137.461  0.00  0.00    +0.000 C 
ATOM     31  C   UNL     1     114.492 125.349 137.460  0.00  0.00    +0.000 C 
BRANCH  26  32
ATOM     32  O   UNL     1     111.245 125.936 137.464  0.00  0.00    +0.000 OA
BRANCH  32  37
ATOM     33  O   UNL     1     111.200 125.735 136.049  0.00  0.00    +0.000 OA
ATOM     34  O   UNL     1     109.678 126.454 137.440  0.00  0.00    +0.000 OA
ATOM     35  O   UNL     1     108.850 126.513 136.015  0.00  0.00    +0.000 OA
ATOM     36  O   UNL     1     109.588 126.053 134.612  0.00  0.00    +0.000 OA
ATOM     37  C   UNL     1     110.830 125.965 136.751  0.00  0.00    +0.000 C 
ATOM     38  C   UNL     1     110.047 126.224 136.739  0.00  0.00    +0.000 C 
ATOM     39  C   UNL     1     109.633 126.253 136.026  0.00  0.00    +0.000 C 
ATOM     40  C   UNL     1     110.002 126.024 135.325  0.00  0.00    +0.000 C 
ATOM     41  C   UNL     1     110.785 125.764 135.336  0.00  0.00    +0.000 C 
ENDBRANCH  32  37
ENDBRANCH  26  32
ENDBRANCH  22  29
ENDBRANCH   5  22
TORSDOF 5
ENDMDL
MODEL 4
REMARK VINA RESULT:     -10.1      2.377      4.292
REMARK  Name = 44259235
REMARK  5 active torsions:
REMARK  status: ('A' for Active; 'I' for Inactive)
REMARK    1  A    between atoms: O_1  and  C_16
REMARK    2  A    between atoms: O_1  and  C_21
REMARK    3  A    between atoms: O_4  and  C_19
REMARK    4  A    between atoms: O_4  and  C_27
REMARK    5  A    between atoms: C_28  and  C_31
REMARK                            x       y       z     vdW  Elec       q    Type
REMARK                         _______ _______ _______ _____ _____    ______ ____
ROOT
ATOM      1  O   UNL     1     113.743 126.163 138.628  0.00  0.00    +0.000 OA
ATOM      2  O   UNL     1     111.610 125.281 137.737  0.00  0.00    +0.000 OA
ATOM      3  O   UNL     1     112.315 124.462 136.781  0.00  0.00    +0.000 OA
ATOM      4  O   UNL     1     115.233 124.538 136.725  0.00  0.00    +0.000 OA
ATOM      5  C   UNL     1     112.316 126.123 138.651  0.00  0.00    +0.000 A 
ATOM      6  C   UNL     1     113.026 126.417 138.948  0.00  0.00    +0.000 A 
ATOM      7  C   UNL     1     112.321 125.575 138.034  0.00  0.00    +0.000 A 
ATOM      8  C   UNL     1     113.038 125.322 137.714  0.00  0.00    +0.000 A 
ATOM      9  C   UNL     1     113.750 125.616 138.011  0.00  0.00    +0.000 A 
ATOM     10  C   UNL     1     113.031 124.751 137.072  0.00  0.00    +0.000 A 
ATOM     11  C   UNL     1     114.502 125.360 137.686  0.00  0.00    +0.000 A 
ATOM     12  C   UNL     1     113.774 124.483 136.734  0.00  0.00    +0.000 A 
ATOM     13  C   UNL     1     114.515 124.789 137.043  0.00  0.00    +0.000 A 
ENDROOT
BRANCH   6  16
ATOM     14  O   UNL     1     113.165 129.122 139.859  0.00  0.00    +0.000 OA
ATOM     15  O   UNL     1     113.006 128.606 141.417  0.00  0.00    +0.000 OA
ATOM     16  C   UNL     1     113.021 126.965 139.565  0.00  0.00    +0.000 A 
ATOM     17  C   UNL     1     113.096 127.770 139.403  0.00  0.00    +0.000 A 
ATOM     18  C   UNL     1     112.942 126.706 140.344  0.00  0.00    +0.000 A 
ATOM     19  C   UNL     1     113.091 128.317 140.020  0.00  0.00    +0.000 A 
ATOM     20  C   UNL     1     112.937 127.253 140.962  0.00  0.00    +0.000 A 
ATOM     21  C   UNL     1     113.011 128.059 140.800  0.00  0.00    +0.000 A 
ENDBRANCH   6  16
BRANCH   5  22
ATOM     22  O   UNL     1     111.599 126.376 138.971  0.00  0.00    +0.000 OA
BRANCH  22  29
ATOM     23  O   UNL     1     111.250 127.214 137.867  0.00  0.00    +0.000 OA
ATOM     24  O   UNL     1     108.855 126.722 138.250  0.00  0.00    +0.000 OA
ATOM     25  O   UNL     1     109.305 127.723 137.018  0.00  0.00    +0.000 OA
ATOM     26  C   UNL     1     110.226 126.549 138.610  0.00  0.00    +0.000 C 
ATOM     27  C   UNL     1     109.653 126.886 138.122  0.00  0.00    +0.000 C 
ATOM     28  C   UNL     1     109.878 127.386 137.507  0.00  0.00    +0.000 C 
ATOM     29  C   UNL     1     111.025 126.713 138.482  0.00  0.00    +0.000 C 
ATOM     30  C   UNL     1     110.676 127.550 137.379  0.00  0.00    +0.000 C 
ATOM     31  C   UNL     1     110.901 128.052 136.763  0.00  0.00    +0.000 C 
BRANCH  26  32
ATOM     32  O   UNL     1     110.002 126.048 139.226  0.00  0.00    +0.000 OA
BRANCH  32  37
ATOM     33  O   UNL     1     109.654 127.182 140.024  0.00  0.00    +0.000 OA
ATOM     34  O   UNL     1     109.439 125.044 140.408  0.00  0.00    +0.000 OA
ATOM     35  O   UNL     1     108.809 125.676 141.796  0.00  0.00    +0.000 OA
ATOM     36  O   UNL     1     108.743 127.312 142.003  0.00  0.00    +0.000 OA
ATOM     37  C   UNL     1     109.687 126.364 139.920  0.00  0.00    +0.000 C 
ATOM     38  C   UNL     1     109.405 125.863 140.512  0.00  0.00    +0.000 C 
ATOM     39  C   UNL     1     109.091 126.178 141.206  0.00  0.00    +0.000 C 
ATOM     40  C   UNL     1     109.058 126.996 141.309  0.00  0.00    +0.000 C 
ATOM     41  C   UNL     1     109.339 127.498 140.718  0.00  0.00    +0.000 C 
ENDBRANCH  32  37
ENDBRANCH  26  32
ENDBRANCH  22  29
ENDBRANCH   5  22
TORSDOF 5
ENDMDL
MODEL 5
REMARK VINA RESULT:     -10.0      1.941      4.239
REMARK  Name = 44259235
REMARK  5 active torsions:
REMARK  status: ('A' for Active; 'I' for Inactive)
REMARK    1  A    between atoms: O_1  and  C_16
REMARK    2  A    between atoms: O_1  and  C_21
REMARK    3  A    between atoms: O_4  and  C_19
REMARK    4  A    between atoms: O_4  and  C_27
REMARK    5  A    between atoms: C_28  and  C_31
REMARK                            x       y       z     vdW  Elec       q    Type
REMARK                         _______ _______ _______ _____ _____    ______ ____
ROOT
ATOM      1  O   UNL     1     113.117 126.779 136.449  0.00  0.00    +0.000 OA
ATOM      2  O   UNL     1     110.829 126.729 137.390  0.00  0.00    +0.000 OA
ATOM      3  O   UNL     1     110.867 125.289 137.480  0.00  0.00    +0.000 OA
ATOM      4  O   UNL     1     113.265 123.874 136.602  0.00  0.00    +0.000 OA
ATOM      5  C   UNL     1     111.942 127.466 136.880  0.00  0.00    +0.000 A 
ATOM      6  C   UNL     1     112.704 127.483 136.566  0.00  0.00    +0.000 A 
ATOM      7  C   UNL     1     111.592 126.745 137.077  0.00  0.00    +0.000 A 
ATOM      8  C   UNL     1     112.005 126.041 136.959  0.00  0.00    +0.000 A 
ATOM      9  C   UNL     1     112.768 126.058 136.645  0.00  0.00    +0.000 A 
ATOM     10  C   UNL     1     111.631 125.296 137.167  0.00  0.00    +0.000 A 
ATOM     11  C   UNL     1     113.209 125.331 136.518  0.00  0.00    +0.000 A 
ATOM     12  C   UNL     1     112.056 124.559 137.047  0.00  0.00    +0.000 A 
ATOM     13  C   UNL     1     112.850 124.577 136.720  0.00  0.00    +0.000 A 
ENDROOT
BRANCH   6  16
ATOM     14  O   UNL     1     113.385 129.454 134.612  0.00  0.00    +0.000 OA
ATOM     15  O   UNL     1     114.105 130.367 135.783  0.00  0.00    +0.000 OA
ATOM     16  C   UNL     1     113.054 128.204 136.370  0.00  0.00    +0.000 A 
ATOM     17  C   UNL     1     113.045 128.469 135.589  0.00  0.00    +0.000 A 
ATOM     18  C   UNL     1     113.414 128.660 136.955  0.00  0.00    +0.000 A 
ATOM     19  C   UNL     1     113.395 129.190 135.393  0.00  0.00    +0.000 A 
ATOM     20  C   UNL     1     113.765 129.381 136.760  0.00  0.00    +0.000 A 
ATOM     21  C   UNL     1     113.755 129.646 135.978  0.00  0.00    +0.000 A 
ENDBRANCH   6  16
BRANCH   5  22
ATOM     22  O   UNL     1     111.529 128.171 136.998  0.00  0.00    +0.000 OA
BRANCH  22  29
ATOM     23  O   UNL     1     110.653 127.987 135.883  0.00  0.00    +0.000 OA
ATOM     24  O   UNL     1     108.866 129.206 137.086  0.00  0.00    +0.000 OA
ATOM     25  O   UNL     1     108.587 128.616 135.571  0.00  0.00    +0.000 OA
ATOM     26  C   UNL     1     110.197 128.689 137.042  0.00  0.00    +0.000 C 
ATOM     27  C   UNL     1     109.462 128.800 136.685  0.00  0.00    +0.000 C 
ATOM     28  C   UNL     1     109.322 128.505 135.928  0.00  0.00    +0.000 C 
ATOM     29  C   UNL     1     110.792 128.282 136.641  0.00  0.00    +0.000 C 
ATOM     30  C   UNL     1     109.918 128.098 135.527  0.00  0.00    +0.000 C 
ATOM     31  C   UNL     1     109.778 127.803 134.769  0.00  0.00    +0.000 C 
BRANCH  26  32
ATOM     32  O   UNL     1     110.337 128.984 137.799  0.00  0.00    +0.000 OA
BRANCH  32  37
ATOM     33  O   UNL     1     110.489 130.298 137.258  0.00  0.00    +0.000 OA
ATOM     34  O   UNL     1     110.648 129.570 139.310  0.00  0.00    +0.000 OA
ATOM     35  O   UNL     1     110.956 131.176 139.525  0.00  0.00    +0.000 OA
ATOM     36  O   UNL     1     110.952 132.197 138.229  0.00  0.00    +0.000 OA
ATOM     37  C   UNL     1     110.491 129.787 137.907  0.00  0.00    +0.000 C 
ATOM     38  C   UNL     1     110.647 130.081 138.662  0.00  0.00    +0.000 C 
ATOM     39  C   UNL     1     110.800 130.884 138.769  0.00  0.00    +0.000 C 
ATOM     40  C   UNL     1     110.798 131.394 138.121  0.00  0.00    +0.000 C 
ATOM     41  C   UNL     1     110.643 131.102 137.365  0.00  0.00    +0.000 C 
ENDBRANCH  32  37
ENDBRANCH  26  32
ENDBRANCH  22  29
ENDBRANCH   5  22
TORSDOF 5
ENDMDL
MODEL 6
REMARK VINA RESULT:     -10.0      1.676      4.938
REMARK  Name = 44259235
REMARK  5 active torsions:
REMARK  status: ('A' for Active; 'I' for Inactive)
REMARK    1  A    between atoms: O_1  and  C_16
REMARK    2  A    between atoms: O_1  and  C_21
REMARK    3  A    between atoms: O_4  and  C_19
REMARK    4  A    between atoms: O_4  and  C_27
REMARK    5  A    between atoms: C_28  and  C_31
REMARK                            x       y       z     vdW  Elec       q    Type
REMARK                         _______ _______ _______ _____ _____    ______ ____
ROOT
ATOM      1  O   UNL     1     110.878 129.931 135.572  0.00  0.00    +0.000 OA
ATOM      2  O   UNL     1     109.620 128.148 136.739  0.00  0.00    +0.000 OA
ATOM      3  O   UNL     1     108.369 128.811 136.463  0.00  0.00    +0.000 OA
ATOM      4  O   UNL     1     108.390 131.324 134.978  0.00  0.00    +0.000 OA
ATOM      5  C   UNL     1     110.862 128.702 136.298  0.00  0.00    +0.000 A 
ATOM      6  C   UNL     1     111.281 129.296 135.910  0.00  0.00    +0.000 A 
ATOM      7  C   UNL     1     110.040 128.742 136.350  0.00  0.00    +0.000 A 
ATOM      8  C   UNL     1     109.636 129.378 136.012  0.00  0.00    +0.000 A 
ATOM      9  C   UNL     1     110.056 129.973 135.622  0.00  0.00    +0.000 A 
ATOM     10  C   UNL     1     108.780 129.410 136.071  0.00  0.00    +0.000 A 
ATOM     11  C   UNL     1     109.647 130.640 135.267  0.00  0.00    +0.000 A 
ATOM     12  C   UNL     1     108.354 130.069 135.722  0.00  0.00    +0.000 A 
ATOM     13  C   UNL     1     108.791 130.688 135.317  0.00  0.00    +0.000 A 
ENDROOT
BRANCH   6  16
ATOM     14  O   UNL     1     113.859 129.731 137.064  0.00  0.00    +0.000 OA
ATOM     15  O   UNL     1     114.571 129.133 135.701  0.00  0.00    +0.000 OA
ATOM     16  C   UNL     1     112.104 129.255 135.858  0.00  0.00    +0.000 A 
ATOM     17  C   UNL     1     112.570 129.513 136.487  0.00  0.00    +0.000 A 
ATOM     18  C   UNL     1     112.460 128.956 135.176  0.00  0.00    +0.000 A 
ATOM     19  C   UNL     1     113.393 129.473 136.435  0.00  0.00    +0.000 A 
ATOM     20  C   UNL     1     113.282 128.916 135.124  0.00  0.00    +0.000 A 
ATOM     21  C   UNL     1     113.749 129.174 135.754  0.00  0.00    +0.000 A 
ENDBRANCH   6  16
BRANCH   5  22
ATOM     22  O   UNL     1     111.265 128.066 136.636  0.00  0.00    +0.000 OA
BRANCH  22  29
ATOM     23  O   UNL     1     110.897 127.127 135.624  0.00  0.00    +0.000 OA
ATOM     24  O   UNL     1     110.898 125.313 137.307  0.00  0.00    +0.000 OA
ATOM     25  O   UNL     1     110.530 124.978 135.734  0.00  0.00    +0.000 OA
ATOM     26  C   UNL     1     111.082 126.689 136.972  0.00  0.00    +0.000 C 
ATOM     27  C   UNL     1     110.898 125.917 136.746  0.00  0.00    +0.000 C 
ATOM     28  C   UNL     1     110.714 125.750 135.960  0.00  0.00    +0.000 C 
ATOM     29  C   UNL     1     111.081 127.293 136.411  0.00  0.00    +0.000 C 
ATOM     30  C   UNL     1     110.713 126.355 135.399  0.00  0.00    +0.000 C 
ATOM     31  C   UNL     1     110.529 126.188 134.612  0.00  0.00    +0.000 C 
BRANCH  26  32
ATOM     32  O   UNL     1     111.266 126.857 137.758  0.00  0.00    +0.000 OA
BRANCH  32  37
ATOM     33  O   UNL     1     112.570 126.302 137.570  0.00  0.00    +0.000 OA
ATOM     34  O   UNL     1     111.640 127.203 139.328  0.00  0.00    +0.000 OA
ATOM     35  O   UNL     1     113.131 126.822 139.924  0.00  0.00    +0.000 OA
ATOM     36  O   UNL     1     114.247 126.094 138.951  0.00  0.00    +0.000 OA
ATOM     37  C   UNL     1     112.011 126.666 138.057  0.00  0.00    +0.000 C 
ATOM     38  C   UNL     1     112.199 126.839 138.841  0.00  0.00    +0.000 C 
ATOM     39  C   UNL     1     112.944 126.648 139.139  0.00  0.00    +0.000 C 
ATOM     40  C   UNL     1     113.502 126.285 138.653  0.00  0.00    +0.000 C 
ATOM     41  C   UNL     1     113.315 126.111 137.868  0.00  0.00    +0.000 C 
ENDBRANCH  32  37
ENDBRANCH  26  32
ENDBRANCH  22  29
ENDBRANCH   5  22
TORSDOF 5
ENDMDL
MODEL 7
REMARK VINA RESULT:     -10.0      1.928      3.770
REMARK  Name = 44259235
REMARK  5 active torsions:
REMARK  status: ('A' for Active; 'I' for Inactive)
REMARK    1  A    between atoms: O_1  and  C_16
REMARK    2  A    between atoms: O_1  and  C_21
REMARK    3  A    between atoms: O_4  and  C_19
REMARK    4  A    between atoms: O_4  and  C_27
REMARK    5  A    between atoms: C_28  and  C_31
REMARK                            x       y       z     vdW  Elec       q    Type
REMARK                         _______ _______ _______ _____ _____    ______ ____
ROOT
ATOM      1  O   UNL     1     111.271 125.982 137.982  0.00  0.00    +0.000 OA
ATOM      2  O   UNL     1     110.996 126.577 135.597  0.00  0.00    +0.000 OA
ATOM      3  O   UNL     1     111.317 125.230 135.193  0.00  0.00    +0.000 OA
ATOM      4  O   UNL     1     111.928 123.242 137.243  0.00  0.00    +0.000 OA
ATOM      5  C   UNL     1     110.974 126.950 136.976  0.00  0.00    +0.000 A 
ATOM      6  C   UNL     1     111.065 126.752 137.771  0.00  0.00    +0.000 A 
ATOM      7  C   UNL     1     111.088 126.379 136.392  0.00  0.00    +0.000 A 
ATOM      8  C   UNL     1     111.294 125.609 136.603  0.00  0.00    +0.000 A 
ATOM      9  C   UNL     1     111.386 125.410 137.399  0.00  0.00    +0.000 A 
ATOM     10  C   UNL     1     111.411 125.022 135.987  0.00  0.00    +0.000 A 
ATOM     11  C   UNL     1     111.601 124.611 137.632  0.00  0.00    +0.000 A 
ATOM     12  C   UNL     1     111.626 124.218 136.200  0.00  0.00    +0.000 A 
ATOM     13  C   UNL     1     111.722 124.012 137.029  0.00  0.00    +0.000 A 
ENDROOT
BRANCH   6  16
ATOM     14  O   UNL     1     109.312 128.257 139.453  0.00  0.00    +0.000 OA
ATOM     15  O   UNL     1     110.610 129.037 140.108  0.00  0.00    +0.000 OA
ATOM     16  C   UNL     1     110.951 127.323 138.355  0.00  0.00    +0.000 A 
ATOM     17  C   UNL     1     110.188 127.505 138.612  0.00  0.00    +0.000 A 
ATOM     18  C   UNL     1     111.600 127.713 138.683  0.00  0.00    +0.000 A 
ATOM     19  C   UNL     1     110.074 128.076 139.196  0.00  0.00    +0.000 A 
ATOM     20  C   UNL     1     111.487 128.284 139.267  0.00  0.00    +0.000 A 
ATOM     21  C   UNL     1     110.723 128.466 139.524  0.00  0.00    +0.000 A 
ENDBRANCH   6  16
BRANCH   5  22
ATOM     22  O   UNL     1     110.767 127.720 136.764  0.00  0.00    +0.000 OA
BRANCH  22  29
ATOM     23  O   UNL     1     112.073 128.088 136.314  0.00  0.00    +0.000 OA
ATOM     24  O   UNL     1     111.066 129.577 134.612  0.00  0.00    +0.000 OA
ATOM     25  O   UNL     1     112.707 129.448 134.729  0.00  0.00    +0.000 OA
ATOM     26  C   UNL     1     110.917 128.649 135.688  0.00  0.00    +0.000 C 
ATOM     27  C   UNL     1     111.402 129.081 135.179  0.00  0.00    +0.000 C 
ATOM     28  C   UNL     1     112.221 129.017 135.238  0.00  0.00    +0.000 C 
ATOM     29  C   UNL     1     111.252 128.153 136.255  0.00  0.00    +0.000 C 
ATOM     30  C   UNL     1     112.557 128.520 135.805  0.00  0.00    +0.000 C 
ATOM     31  C   UNL     1     113.378 128.456 135.864  0.00  0.00    +0.000 C 
BRANCH  26  32
ATOM     32  O   UNL     1     110.096 128.713 135.630  0.00  0.00    +0.000 OA
BRANCH  32  37
ATOM     33  O   UNL     1     110.146 129.962 136.323  0.00  0.00    +0.000 OA
ATOM     34  O   UNL     1     108.459 128.858 135.485  0.00  0.00    +0.000 OA
ATOM     35  O   UNL     1     107.689 130.178 136.106  0.00  0.00    +0.000 OA
ATOM     36  O   UNL     1     108.557 131.355 136.872  0.00  0.00    +0.000 OA
ATOM     37  C   UNL     1     109.711 129.373 135.940  0.00  0.00    +0.000 C 
ATOM     38  C   UNL     1     108.893 129.446 135.868  0.00  0.00    +0.000 C 
ATOM     39  C   UNL     1     108.508 130.107 136.179  0.00  0.00    +0.000 C 
ATOM     40  C   UNL     1     108.942 130.694 136.561  0.00  0.00    +0.000 C 
ATOM     41  C   UNL     1     109.761 130.622 136.634  0.00  0.00    +0.000 C 
ENDBRANCH  32  37
ENDBRANCH  26  32
ENDBRANCH  22  29
ENDBRANCH   5  22
TORSDOF 5
ENDMDL
MODEL 8
REMARK VINA RESULT:      -9.9      1.613      3.839
REMARK  Name = 44259235
REMARK  5 active torsions:
REMARK  status: ('A' for Active; 'I' for Inactive)
REMARK    1  A    between atoms: O_1  and  C_16
REMARK    2  A    between atoms: O_1  and  C_21
REMARK    3  A    between atoms: O_4  and  C_19
REMARK    4  A    between atoms: O_4  and  C_27
REMARK    5  A    between atoms: C_28  and  C_31
REMARK                            x       y       z     vdW  Elec       q    Type
REMARK                         _______ _______ _______ _____ _____    ______ ____
ROOT
ATOM      1  O   UNL     1     112.529 125.321 138.090  0.00  0.00    +0.000 OA
ATOM      2  O   UNL     1     111.495 126.858 136.450  0.00  0.00    +0.000 OA
ATOM      3  O   UNL     1     111.197 125.759 135.565  0.00  0.00    +0.000 OA
ATOM      4  O   UNL     1     111.960 123.054 136.354  0.00  0.00    +0.000 OA
ATOM      5  C   UNL     1     112.154 126.643 137.700  0.00  0.00    +0.000 A 
ATOM      6  C   UNL     1     112.499 126.131 138.246  0.00  0.00    +0.000 A 
ATOM      7  C   UNL     1     111.839 126.346 136.997  0.00  0.00    +0.000 A 
ATOM      8  C   UNL     1     111.870 125.537 136.841  0.00  0.00    +0.000 A 
ATOM      9  C   UNL     1     112.215 125.024 137.388  0.00  0.00    +0.000 A 
ATOM     10  C   UNL     1     111.540 125.239 136.106  0.00  0.00    +0.000 A 
ATOM     11  C   UNL     1     112.253 124.179 137.237  0.00  0.00    +0.000 A 
ATOM     12  C   UNL     1     111.569 124.397 135.938  0.00  0.00    +0.000 A 
ATOM     13  C   UNL     1     111.928 123.864 136.507  0.00  0.00    +0.000 A 
ENDROOT
BRANCH   6  16
ATOM     14  O   UNL     1     112.142 127.004 140.944  0.00  0.00    +0.000 OA
ATOM     15  O   UNL     1     113.759 127.316 141.057  0.00  0.00    +0.000 OA
ATOM     16  C   UNL     1     112.813 126.427 138.949  0.00  0.00    +0.000 A 
ATOM     17  C   UNL     1     112.320 126.568 139.595  0.00  0.00    +0.000 A 
ATOM     18  C   UNL     1     113.621 126.583 139.005  0.00  0.00    +0.000 A 
ATOM     19  C   UNL     1     112.635 126.864 140.298  0.00  0.00    +0.000 A 
ATOM     20  C   UNL     1     113.937 126.880 139.708  0.00  0.00    +0.000 A 
ATOM     21  C   UNL     1     113.443 127.020 140.354  0.00  0.00    +0.000 A 
ENDBRANCH   6  16
BRANCH   5  22
ATOM     22  O   UNL     1     112.123 127.452 137.856  0.00  0.00    +0.000 OA
BRANCH  22  29
ATOM     23  O   UNL     1     113.139 127.802 136.914  0.00  0.00    +0.000 OA
ATOM     24  O   UNL     1     112.019 129.971 136.510  0.00  0.00    +0.000 OA
ATOM     25  O   UNL     1     113.408 129.598 135.702  0.00  0.00    +0.000 OA
ATOM     26  C   UNL     1     112.071 128.713 137.182  0.00  0.00    +0.000 C 
ATOM     27  C   UNL     1     112.392 129.248 136.645  0.00  0.00    +0.000 C 
ATOM     28  C   UNL     1     113.087 129.062 136.241  0.00  0.00    +0.000 C 
ATOM     29  C   UNL     1     112.445 127.989 137.317  0.00  0.00    +0.000 C 
ATOM     30  C   UNL     1     113.460 128.338 136.376  0.00  0.00    +0.000 C 
ATOM     31  C   UNL     1     114.155 128.151 135.972  0.00  0.00    +0.000 C 
BRANCH  26  32
ATOM     32  O   UNL     1     111.376 128.899 137.587  0.00  0.00    +0.000 OA
BRANCH  32  37
ATOM     33  O   UNL     1     112.118 129.743 138.470  0.00  0.00    +0.000 OA
ATOM     34  O   UNL     1     109.986 129.278 138.391  0.00  0.00    +0.000 OA
ATOM     35  O   UNL     1     110.033 130.311 139.677  0.00  0.00    +0.000 OA
ATOM     36  O   UNL     1     111.469 130.965 140.158  0.00  0.00    +0.000 OA
ATOM     37  C   UNL     1     111.399 129.415 138.230  0.00  0.00    +0.000 C 
ATOM     38  C   UNL     1     110.705 129.605 138.632  0.00  0.00    +0.000 C 
ATOM     39  C   UNL     1     110.728 130.122 139.275  0.00  0.00    +0.000 C 
ATOM     40  C   UNL     1     111.446 130.448 139.515  0.00  0.00    +0.000 C 
ATOM     41  C   UNL     1     112.141 130.259 139.113  0.00  0.00    +0.000 C 
ENDBRANCH  32  37
ENDBRANCH  26  32
ENDBRANCH  22  29
ENDBRANCH   5  22
TORSDOF 5
ENDMDL
MODEL 9
REMARK VINA RESULT:      -9.9      1.646      3.869
REMARK  Name = 44259235
REMARK  5 active torsions:
REMARK  status: ('A' for Active; 'I' for Inactive)
REMARK    1  A    between atoms: O_1  and  C_16
REMARK    2  A    between atoms: O_1  and  C_21
REMARK    3  A    between atoms: O_4  and  C_19
REMARK    4  A    between atoms: O_4  and  C_27
REMARK    5  A    between atoms: C_28  and  C_31
REMARK                            x       y       z     vdW  Elec       q    Type
REMARK                         _______ _______ _______ _____ _____    ______ ____
ROOT
ATOM      1  O   UNL     1     113.513 126.736 137.455  0.00  0.00    +0.000 OA
ATOM      2  O   UNL     1     111.478 125.562 136.679  0.00  0.00    +0.000 OA
ATOM      3  O   UNL     1     112.204 124.321 136.559  0.00  0.00    +0.000 OA
ATOM      4  O   UNL     1     115.043 124.268 137.237  0.00  0.00    +0.000 OA
ATOM      5  C   UNL     1     112.124 126.757 137.122  0.00  0.00    +0.000 A 
ATOM      6  C   UNL     1     112.802 127.148 137.381  0.00  0.00    +0.000 A 
ATOM      7  C   UNL     1     112.155 125.953 136.937  0.00  0.00    +0.000 A 
ATOM      8  C   UNL     1     112.866 125.541 137.012  0.00  0.00    +0.000 A 
ATOM      9  C   UNL     1     113.546 125.932 137.271  0.00  0.00    +0.000 A 
ATOM     10  C   UNL     1     112.888 124.704 136.817  0.00  0.00    +0.000 A 
ATOM     11  C   UNL     1     114.292 125.514 137.352  0.00  0.00    +0.000 A 
ATOM     12  C   UNL     1     113.625 124.270 136.892  0.00  0.00    +0.000 A 
ATOM     13  C   UNL     1     114.331 124.677 137.162  0.00  0.00    +0.000 A 
ENDROOT
BRANCH   6  16
ATOM     14  O   UNL     1     112.866 129.883 136.554  0.00  0.00    +0.000 OA
ATOM     15  O   UNL     1     112.675 130.361 138.121  0.00  0.00    +0.000 OA
ATOM     16  C   UNL     1     112.770 127.952 137.565  0.00  0.00    +0.000 A 
ATOM     17  C   UNL     1     112.834 128.515 136.967  0.00  0.00    +0.000 A 
ATOM     18  C   UNL     1     112.675 128.191 138.349  0.00  0.00    +0.000 A 
ATOM     19  C   UNL     1     112.802 129.319 137.152  0.00  0.00    +0.000 A 
ATOM     20  C   UNL     1     112.643 128.994 138.535  0.00  0.00    +0.000 A 
ATOM     21  C   UNL     1     112.707 129.558 137.936  0.00  0.00    +0.000 A 
ENDBRANCH   6  16
BRANCH   5  22
ATOM     22  O   UNL     1     111.413 127.169 137.048  0.00  0.00    +0.000 OA
BRANCH  22  29
ATOM     23  O   UNL     1     110.817 126.601 138.216  0.00  0.00    +0.000 OA
ATOM     24  O   UNL     1     108.586 126.768 137.159  0.00  0.00    +0.000 OA
ATOM     25  O   UNL     1     108.734 126.145 138.680  0.00  0.00    +0.000 OA
ATOM     26  C   UNL     1     109.999 126.968 137.103  0.00  0.00    +0.000 C 
ATOM     27  C   UNL     1     109.329 126.712 137.511  0.00  0.00    +0.000 C 
ATOM     28  C   UNL     1     109.403 126.401 138.271  0.00  0.00    +0.000 C 
ATOM     29  C   UNL     1     110.743 126.913 137.456  0.00  0.00    +0.000 C 
ATOM     30  C   UNL     1     110.147 126.346 138.623  0.00  0.00    +0.000 C 
ATOM     31  C   UNL     1     110.221 126.034 139.385  0.00  0.00    +0.000 C 
BRANCH  26  32
ATOM     32  O   UNL     1     109.925 127.279 136.343  0.00  0.00    +0.000 OA
BRANCH  32  37
ATOM     33  O   UNL     1     109.456 128.512 136.894  0.00  0.00    +0.000 OA
ATOM     34  O   UNL     1     109.814 127.916 134.824  0.00  0.00    +0.000 OA
ATOM     35  O   UNL     1     109.289 129.466 134.616  0.00  0.00    +0.000 OA
ATOM     36  O   UNL     1     108.875 130.380 135.926  0.00  0.00    +0.000 OA
ATOM     37  C   UNL     1     109.663 128.055 136.239  0.00  0.00    +0.000 C 
ATOM     38  C   UNL     1     109.607 128.373 135.480  0.00  0.00    +0.000 C 
ATOM     39  C   UNL     1     109.344 129.148 135.376  0.00  0.00    +0.000 C 
ATOM     40  C   UNL     1     109.138 129.605 136.030  0.00  0.00    +0.000 C 
ATOM     41  C   UNL     1     109.193 129.287 136.790  0.00  0.00    +0.000 C 
ENDBRANCH  32  37
ENDBRANCH  26  32
ENDBRANCH  22  29
ENDBRANCH   5  22
TORSDOF 5
ENDMDL
MODEL 10
REMARK VINA RESULT:      -9.9      1.791      3.935
REMARK  Name = 44259235
REMARK  5 active torsions:
REMARK  status: ('A' for Active; 'I' for Inactive)
REMARK    1  A    between atoms: O_1  and  C_16
REMARK    2  A    between atoms: O_1  and  C_21
REMARK    3  A    between atoms: O_4  and  C_19
REMARK    4  A    between atoms: O_4  and  C_27
REMARK    5  A    between atoms: C_28  and  C_31
REMARK                            x       y       z     vdW  Elec       q    Type
REMARK                         _______ _______ _______ _____ _____    ______ ____
ROOT
ATOM      1  O   UNL     1     112.783 126.434 136.277  0.00  0.00    +0.000 OA
ATOM      2  O   UNL     1     110.669 126.352 137.560  0.00  0.00    +0.000 OA
ATOM      3  O   UNL     1     110.835 124.939 137.799  0.00  0.00    +0.000 OA
ATOM      4  O   UNL     1     113.184 123.583 136.718  0.00  0.00    +0.000 OA
ATOM      5  C   UNL     1     111.632 127.092 136.808  0.00  0.00    +0.000 A 
ATOM      6  C   UNL     1     112.336 127.120 136.380  0.00  0.00    +0.000 A 
ATOM      7  C   UNL     1     111.373 126.379 137.133  0.00  0.00    +0.000 A 
ATOM      8  C   UNL     1     111.820 125.694 137.029  0.00  0.00    +0.000 A 
ATOM      9  C   UNL     1     112.525 125.721 136.601  0.00  0.00    +0.000 A 
ATOM     10  C   UNL     1     111.541 124.957 137.372  0.00  0.00    +0.000 A 
ATOM     11  C   UNL     1     112.999 125.013 136.487  0.00  0.00    +0.000 A 
ATOM     12  C   UNL     1     112.002 124.239 137.268  0.00  0.00    +0.000 A 
ATOM     13  C   UNL     1     112.735 124.268 136.823  0.00  0.00    +0.000 A 
ENDROOT
BRANCH   6  16
ATOM     14  O   UNL     1     114.009 129.434 136.501  0.00  0.00    +0.000 OA
ATOM     15  O   UNL     1     113.369 129.971 135.078  0.00  0.00    +0.000 OA
ATOM     16  C   UNL     1     112.595 127.833 136.055  0.00  0.00    +0.000 A 
ATOM     17  C   UNL     1     113.173 128.277 136.440  0.00  0.00    +0.000 A 
ATOM     18  C   UNL     1     112.275 128.101 135.343  0.00  0.00    +0.000 A 
ATOM     19  C   UNL     1     113.431 128.990 136.115  0.00  0.00    +0.000 A 
ATOM     20  C   UNL     1     112.533 128.814 135.017  0.00  0.00    +0.000 A 
ATOM     21  C   UNL     1     113.111 129.258 135.404  0.00  0.00    +0.000 A 
ENDBRANCH   6  16
BRANCH   5  22
ATOM     22  O   UNL     1     111.185 127.778 136.911  0.00  0.00    +0.000 OA
BRANCH  22  29
ATOM     23  O   UNL     1     111.567 127.987 138.272  0.00  0.00    +0.000 OA
ATOM     24  O   UNL     1     109.335 128.944 138.751  0.00  0.00    +0.000 OA
ATOM     25  O   UNL     1     110.460 128.834 139.952  0.00  0.00    +0.000 OA
ATOM     26  C   UNL     1     110.260 128.361 137.831  0.00  0.00    +0.000 C 
ATOM     27  C   UNL     1     110.079 128.625 138.591  0.00  0.00    +0.000 C 
ATOM     28  C   UNL     1     110.641 128.570 139.192  0.00  0.00    +0.000 C 
ATOM     29  C   UNL     1     111.004 128.042 137.672  0.00  0.00    +0.000 C 
ATOM     30  C   UNL     1     111.385 128.251 139.032  0.00  0.00    +0.000 C 
ATOM     31  C   UNL     1     111.948 128.196 139.633  0.00  0.00    +0.000 C 
BRANCH  26  32
ATOM     32  O   UNL     1     109.697 128.416 137.230  0.00  0.00    +0.000 OA
BRANCH  32  37
ATOM     33  O   UNL     1     109.997 129.806 137.077  0.00  0.00    +0.000 OA
ATOM     34  O   UNL     1     108.514 128.545 136.087  0.00  0.00    +0.000 OA
ATOM     35  O   UNL     1     108.222 129.999 135.363  0.00  0.00    +0.000 OA
ATOM     36  O   UNL     1     109.113 131.323 135.781  0.00  0.00    +0.000 OA
ATOM     37  C   UNL     1     109.551 129.143 136.868  0.00  0.00    +0.000 C 
ATOM     38  C   UNL     1     108.960 129.208 136.296  0.00  0.00    +0.000 C 
ATOM     39  C   UNL     1     108.814 129.935 135.934  0.00  0.00    +0.000 C 
ATOM     40  C   UNL     1     109.259 130.597 136.143  0.00  0.00    +0.000 C 
ATOM     41  C   UNL     1     109.851 130.533 136.715  0.00  0.00    +0.000 C 
ENDBRANCH  32  37
ENDBRANCH  26  32
ENDBRANCH  22  29
ENDBRANCH   5  22
TORSDOF 5
ENDMDL
