MODEL 1
REMARK VINA RESULT:     -10.7      0.000      0.000
REMARK  Name = 44257875
REMARK  6 active torsions:
REMARK  status: ('A' for Active; 'I' for Inactive)
REMARK    1  A    between atoms: O_1  and  C_15
REMARK    2  A    between atoms: O_1  and  C_20
REMARK    3  A    between atoms: O_14  and  C_41
REMARK    4  A    between atoms: C_17  and  C_25
REMARK    5  A    between atoms: C_19  and  C_26
REMARK    6  A    between atoms: C_34  and  C_36
REMARK                            x       y       z     vdW  Elec       q    Type
REMARK                         _______ _______ _______ _____ _____    ______ ____
ROOT
ATOM      1  O   UNL     1     113.513 127.248 136.691  0.00  0.00    +0.000 OA
ATOM      2  O   UNL     1     112.626 128.171 138.808  0.00  0.00    +0.000 OA
ATOM      3  O   UNL     1     113.259 129.182 137.669  0.00  0.00    +0.000 OA
ATOM      4  C   UNL     1     112.901 127.050 137.966  0.00  0.00    +0.000 C 
ATOM      5  C   UNL     1     112.921 127.863 138.103  0.00  0.00    +0.000 C 
ATOM      6  C   UNL     1     113.196 126.742 137.260  0.00  0.00    +0.000 C 
ATOM      7  C   UNL     1     113.238 128.369 137.533  0.00  0.00    +0.000 C 
ATOM      8  C   UNL     1     113.534 128.061 136.827  0.00  0.00    +0.000 C 
ENDROOT
BRANCH   6  13
ATOM      9  O   UNL     1     111.829 126.078 136.604  0.00  0.00    +0.000 OA
ATOM     10  O   UNL     1     114.503 125.810 137.639  0.00  0.00    +0.000 OA
ATOM     11  O   UNL     1     113.116 123.489 136.713  0.00  0.00    +0.000 OA
ATOM     12  O   UNL     1     111.776 123.581 136.187  0.00  0.00    +0.000 OA
ATOM     13  C   UNL     1     113.176 125.929 137.123  0.00  0.00    +0.000 A 
ATOM     14  C   UNL     1     112.503 125.582 136.797  0.00  0.00    +0.000 A 
ATOM     15  C   UNL     1     113.829 125.462 137.313  0.00  0.00    +0.000 A 
ATOM     16  C   UNL     1     112.482 124.769 136.660  0.00  0.00    +0.000 A 
ATOM     17  C   UNL     1     113.810 124.649 137.176  0.00  0.00    +0.000 A 
ATOM     18  C   UNL     1     113.136 124.302 136.849  0.00  0.00    +0.000 A 
ATOM     19  C   UNL     1     111.787 124.396 136.320  0.00  0.00    +0.000 A 
ATOM     20  C   UNL     1     111.123 125.723 136.263  0.00  0.00    +0.000 A 
ATOM     21  C   UNL     1     111.103 124.876 136.121  0.00  0.00    +0.000 A 
BRANCH  20  22
ATOM     22  C   UNL     1     110.471 126.192 136.075  0.00  0.00    +0.000 A 
ATOM     23  C   UNL     1     110.403 126.518 135.320  0.00  0.00    +0.000 A 
ATOM     24  C   UNL     1     109.888 126.334 136.640  0.00  0.00    +0.000 A 
ATOM     25  C   UNL     1     109.750 126.987 135.132  0.00  0.00    +0.000 A 
ATOM     26  C   UNL     1     109.236 126.802 136.453  0.00  0.00    +0.000 A 
ATOM     27  C   UNL     1     109.167 127.130 135.698  0.00  0.00    +0.000 A 
BRANCH  27  28
ATOM     28  O   UNL     1     108.515 127.598 135.510  0.00  0.00    +0.000 OA
ATOM     29  C   UNL     1     108.499 128.392 135.733  0.00  0.00    +0.000 C 
ENDBRANCH  27  28
ENDBRANCH  20  22
ENDBRANCH   6  13
BRANCH   8  31
ATOM     30  O   UNL     1     113.686 128.443 135.458  0.00  0.00    +0.000 OA
ATOM     31  C   UNL     1     113.851 128.567 136.257  0.00  0.00    +0.000 C 
ENDBRANCH   8  31
BRANCH   4  32
ATOM     32  O   UNL     1     112.584 126.544 138.535  0.00  0.00    +0.000 OA
BRANCH  32  37
ATOM     33  O   UNL     1     113.549 126.867 139.538  0.00  0.00    +0.000 OA
ATOM     34  O   UNL     1     111.452 126.285 139.708  0.00  0.00    +0.000 OA
ATOM     35  O   UNL     1     111.851 126.479 141.297  0.00  0.00    +0.000 OA
ATOM     36  O   UNL     1     113.383 126.931 141.714  0.00  0.00    +0.000 OA
ATOM     37  C   UNL     1     112.784 126.641 139.331  0.00  0.00    +0.000 C 
ATOM     38  C   UNL     1     112.218 126.512 139.917  0.00  0.00    +0.000 C 
ATOM     39  C   UNL     1     112.417 126.608 140.711  0.00  0.00    +0.000 C 
ATOM     40  C   UNL     1     113.182 126.834 140.919  0.00  0.00    +0.000 C 
ATOM     41  C   UNL     1     113.748 126.964 140.333  0.00  0.00    +0.000 C 
ATOM     42  C   UNL     1     114.514 127.190 140.541  0.00  0.00    +0.000 C 
ENDBRANCH  32  37
ENDBRANCH   4  32
TORSDOF 6
ENDMDL
MODEL 2
REMARK VINA RESULT:     -10.4      1.367      2.883
REMARK  Name = 44257875
REMARK  6 active torsions:
REMARK  status: ('A' for Active; 'I' for Inactive)
REMARK    1  A    between atoms: O_1  and  C_15
REMARK    2  A    between atoms: O_1  and  C_20
REMARK    3  A    between atoms: O_14  and  C_41
REMARK    4  A    between atoms: C_17  and  C_25
REMARK    5  A    between atoms: C_19  and  C_26
REMARK    6  A    between atoms: C_34  and  C_36
REMARK                            x       y       z     vdW  Elec       q    Type
REMARK                         _______ _______ _______ _____ _____    ______ ____
ROOT
ATOM      1  O   UNL     1     111.839 126.344 139.251  0.00  0.00    +0.000 OA
ATOM      2  O   UNL     1     111.524 128.739 138.714  0.00  0.00    +0.000 OA
ATOM      3  O   UNL     1     110.401 127.943 139.623  0.00  0.00    +0.000 OA
ATOM      4  C   UNL     1     112.296 127.540 138.618  0.00  0.00    +0.000 C 
ATOM      5  C   UNL     1     111.629 127.941 138.893  0.00  0.00    +0.000 C 
ATOM      6  C   UNL     1     112.401 126.742 138.797  0.00  0.00    +0.000 C 
ATOM      7  C   UNL     1     111.067 127.543 139.348  0.00  0.00    +0.000 C 
ATOM      8  C   UNL     1     111.172 126.744 139.527  0.00  0.00    +0.000 C 
ENDROOT
BRANCH   6  13
ATOM      9  O   UNL     1     112.353 126.055 137.291  0.00  0.00    +0.000 OA
ATOM     10  O   UNL     1     113.748 126.637 139.744  0.00  0.00    +0.000 OA
ATOM     11  O   UNL     1     115.068 125.138 137.699  0.00  0.00    +0.000 OA
ATOM     12  O   UNL     1     114.404 124.826 136.456  0.00  0.00    +0.000 OA
ATOM     13  C   UNL     1     113.067 126.341 138.522  0.00  0.00    +0.000 A 
ATOM     14  C   UNL     1     113.060 125.993 137.774  0.00  0.00    +0.000 A 
ATOM     15  C   UNL     1     113.741 126.288 138.995  0.00  0.00    +0.000 A 
ATOM     16  C   UNL     1     113.727 125.592 137.499  0.00  0.00    +0.000 A 
ATOM     17  C   UNL     1     114.408 125.887 138.721  0.00  0.00    +0.000 A 
ATOM     18  C   UNL     1     114.401 125.539 137.972  0.00  0.00    +0.000 A 
ATOM     19  C   UNL     1     113.732 125.226 136.723  0.00  0.00    +0.000 A 
ATOM     20  C   UNL     1     112.339 125.694 136.510  0.00  0.00    +0.000 A 
ATOM     21  C   UNL     1     113.034 125.277 136.225  0.00  0.00    +0.000 A 
BRANCH  20  22
ATOM     22  C   UNL     1     111.664 125.749 136.039  0.00  0.00    +0.000 A 
ATOM     23  C   UNL     1     111.568 126.390 135.529  0.00  0.00    +0.000 A 
ATOM     24  C   UNL     1     111.086 125.162 136.078  0.00  0.00    +0.000 A 
ATOM     25  C   UNL     1     110.893 126.444 135.058  0.00  0.00    +0.000 A 
ATOM     26  C   UNL     1     110.411 125.215 135.607  0.00  0.00    +0.000 A 
ATOM     27  C   UNL     1     110.314 125.857 135.097  0.00  0.00    +0.000 A 
BRANCH  27  28
ATOM     28  O   UNL     1     109.639 125.911 134.626  0.00  0.00    +0.000 OA
ATOM     29  C   UNL     1     108.953 126.256 134.927  0.00  0.00    +0.000 C 
ENDBRANCH  27  28
ENDBRANCH  20  22
ENDBRANCH   6  13
BRANCH   8  31
ATOM     30  O   UNL     1     110.416 125.564 139.805  0.00  0.00    +0.000 OA
ATOM     31  C   UNL     1     110.610 126.346 139.982  0.00  0.00    +0.000 C 
ENDBRANCH   8  31
BRANCH   4  32
ATOM     32  O   UNL     1     112.857 127.938 138.163  0.00  0.00    +0.000 OA
BRANCH  32  37
ATOM     33  O   UNL     1     113.258 128.833 139.203  0.00  0.00    +0.000 OA
ATOM     34  O   UNL     1     113.154 129.110 137.040  0.00  0.00    +0.000 OA
ATOM     35  O   UNL     1     113.704 130.590 137.518  0.00  0.00    +0.000 OA
ATOM     36  O   UNL     1     113.956 130.899 139.119  0.00  0.00    +0.000 OA
ATOM     37  C   UNL     1     113.132 128.679 138.402  0.00  0.00    +0.000 C 
ATOM     38  C   UNL     1     113.281 129.265 137.840  0.00  0.00    +0.000 C 
ATOM     39  C   UNL     1     113.555 130.005 138.079  0.00  0.00    +0.000 C 
ATOM     40  C   UNL     1     113.681 130.159 138.879  0.00  0.00    +0.000 C 
ATOM     41  C   UNL     1     113.533 129.573 139.441  0.00  0.00    +0.000 C 
ATOM     42  C   UNL     1     113.659 129.728 140.242  0.00  0.00    +0.000 C 
ENDBRANCH  32  37
ENDBRANCH   4  32
TORSDOF 6
ENDMDL
MODEL 3
REMARK VINA RESULT:     -10.4      1.442      3.351
REMARK  Name = 44257875
REMARK  6 active torsions:
REMARK  status: ('A' for Active; 'I' for Inactive)
REMARK    1  A    between atoms: O_1  and  C_15
REMARK    2  A    between atoms: O_1  and  C_20
REMARK    3  A    between atoms: O_14  and  C_41
REMARK    4  A    between atoms: C_17  and  C_25
REMARK    5  A    between atoms: C_19  and  C_26
REMARK    6  A    between atoms: C_34  and  C_36
REMARK                            x       y       z     vdW  Elec       q    Type
REMARK                         _______ _______ _______ _____ _____    ______ ____
ROOT
ATOM      1  O   UNL     1     113.359 125.707 136.347  0.00  0.00    +0.000 OA
ATOM      2  O   UNL     1     113.114 125.482 138.799  0.00  0.00    +0.000 OA
ATOM      3  O   UNL     1     114.598 125.309 138.099  0.00  0.00    +0.000 OA
ATOM      4  C   UNL     1     112.536 125.719 137.514  0.00  0.00    +0.000 C 
ATOM      5  C   UNL     1     113.196 125.557 137.982  0.00  0.00    +0.000 C 
ATOM      6  C   UNL     1     112.617 125.794 136.697  0.00  0.00    +0.000 C 
ATOM      7  C   UNL     1     113.938 125.470 137.632  0.00  0.00    +0.000 C 
ATOM      8  C   UNL     1     114.019 125.546 136.814  0.00  0.00    +0.000 C 
ENDROOT
BRANCH   6  13
ATOM      9  O   UNL     1     112.452 127.308 136.046  0.00  0.00    +0.000 OA
ATOM     10  O   UNL     1     111.491 124.619 136.426  0.00  0.00    +0.000 OA
ATOM     11  O   UNL     1     109.976 126.439 134.826  0.00  0.00    +0.000 OA
ATOM     12  O   UNL     1     110.423 127.794 134.612  0.00  0.00    +0.000 OA
ATOM     13  C   UNL     1     111.957 125.956 136.229  0.00  0.00    +0.000 A 
ATOM     14  C   UNL     1     111.859 126.705 135.898  0.00  0.00    +0.000 A 
ATOM     15  C   UNL     1     111.394 125.368 136.094  0.00  0.00    +0.000 A 
ATOM     16  C   UNL     1     111.199 126.866 135.430  0.00  0.00    +0.000 A 
ATOM     17  C   UNL     1     110.734 125.529 135.626  0.00  0.00    +0.000 A 
ATOM     18  C   UNL     1     110.636 126.279 135.294  0.00  0.00    +0.000 A 
ATOM     19  C   UNL     1     111.087 127.642 135.079  0.00  0.00    +0.000 A 
ATOM     20  C   UNL     1     112.357 128.091 135.704  0.00  0.00    +0.000 A 
ATOM     21  C   UNL     1     111.669 128.258 135.216  0.00  0.00    +0.000 A 
BRANCH  20  22
ATOM     22  C   UNL     1     112.921 128.677 135.841  0.00  0.00    +0.000 A 
ATOM     23  C   UNL     1     112.772 129.271 136.394  0.00  0.00    +0.000 A 
ATOM     24  C   UNL     1     113.634 128.669 135.426  0.00  0.00    +0.000 A 
ATOM     25  C   UNL     1     113.337 129.856 136.531  0.00  0.00    +0.000 A 
ATOM     26  C   UNL     1     114.198 129.253 135.563  0.00  0.00    +0.000 A 
ATOM     27  C   UNL     1     114.050 129.848 136.116  0.00  0.00    +0.000 A 
BRANCH  27  28
ATOM     28  O   UNL     1     114.615 130.434 136.253  0.00  0.00    +0.000 OA
ATOM     29  C   UNL     1     114.934 130.855 135.620  0.00  0.00    +0.000 C 
ENDBRANCH  27  28
ENDBRANCH  20  22
ENDBRANCH   6  13
BRANCH   8  31
ATOM     30  O   UNL     1     114.844 125.003 135.780  0.00  0.00    +0.000 OA
ATOM     31  C   UNL     1     114.761 125.459 136.463  0.00  0.00    +0.000 C 
ENDBRANCH   8  31
BRANCH   4  32
ATOM     32  O   UNL     1     111.794 125.806 137.864  0.00  0.00    +0.000 OA
BRANCH  32  37
ATOM     33  O   UNL     1     112.134 126.949 138.652  0.00  0.00    +0.000 OA
ATOM     34  O   UNL     1     110.794 125.276 139.065  0.00  0.00    +0.000 OA
ATOM     35  O   UNL     1     110.635 126.153 140.454  0.00  0.00    +0.000 OA
ATOM     36  O   UNL     1     111.475 127.561 140.641  0.00  0.00    +0.000 OA
ATOM     37  C   UNL     1     111.714 126.245 138.559  0.00  0.00    +0.000 C 
ATOM     38  C   UNL     1     111.214 125.980 139.160  0.00  0.00    +0.000 C 
ATOM     39  C   UNL     1     111.134 126.418 139.853  0.00  0.00    +0.000 C 
ATOM     40  C   UNL     1     111.554 127.122 139.947  0.00  0.00    +0.000 C 
ATOM     41  C   UNL     1     112.054 127.387 139.347  0.00  0.00    +0.000 C 
ATOM     42  C   UNL     1     112.475 128.091 139.440  0.00  0.00    +0.000 C 
ENDBRANCH  32  37
ENDBRANCH   4  32
TORSDOF 6
ENDMDL
MODEL 4
REMARK VINA RESULT:     -10.4      1.644      4.302
REMARK  Name = 44257875
REMARK  6 active torsions:
REMARK  status: ('A' for Active; 'I' for Inactive)
REMARK    1  A    between atoms: O_1  and  C_15
REMARK    2  A    between atoms: O_1  and  C_20
REMARK    3  A    between atoms: O_14  and  C_41
REMARK    4  A    between atoms: C_17  and  C_25
REMARK    5  A    between atoms: C_19  and  C_26
REMARK    6  A    between atoms: C_34  and  C_36
REMARK                            x       y       z     vdW  Elec       q    Type
REMARK                         _______ _______ _______ _____ _____    ______ ____
ROOT
ATOM      1  O   UNL     1     112.771 128.088 135.687  0.00  0.00    +0.000 OA
ATOM      2  O   UNL     1     111.548 129.880 136.876  0.00  0.00    +0.000 OA
ATOM      3  O   UNL     1     113.059 130.168 136.280  0.00  0.00    +0.000 OA
ATOM      4  C   UNL     1     111.608 128.541 136.381  0.00  0.00    +0.000 C 
ATOM      5  C   UNL     1     111.955 129.283 136.480  0.00  0.00    +0.000 C 
ATOM      6  C   UNL     1     112.016 127.944 135.985  0.00  0.00    +0.000 C 
ATOM      7  C   UNL     1     112.711 129.427 136.182  0.00  0.00    +0.000 C 
ATOM      8  C   UNL     1     113.119 128.829 135.785  0.00  0.00    +0.000 C 
ENDROOT
BRANCH   6  13
ATOM      9  O   UNL     1     112.193 126.814 137.182  0.00  0.00    +0.000 OA
ATOM     10  O   UNL     1     111.164 127.609 134.612  0.00  0.00    +0.000 OA
ATOM     11  O   UNL     1     110.627 124.977 135.587  0.00  0.00    +0.000 OA
ATOM     12  O   UNL     1     111.125 124.540 136.869  0.00  0.00    +0.000 OA
ATOM     13  C   UNL     1     111.669 127.201 135.886  0.00  0.00    +0.000 A 
ATOM     14  C   UNL     1     111.747 126.627 136.472  0.00  0.00    +0.000 A 
ATOM     15  C   UNL     1     111.243 127.034 135.200  0.00  0.00    +0.000 A 
ATOM     16  C   UNL     1     111.400 125.885 136.373  0.00  0.00    +0.000 A 
ATOM     17  C   UNL     1     110.895 126.293 135.099  0.00  0.00    +0.000 A 
ATOM     18  C   UNL     1     110.974 125.718 135.687  0.00  0.00    +0.000 A 
ATOM     19  C   UNL     1     111.475 125.279 136.977  0.00  0.00    +0.000 A 
ATOM     20  C   UNL     1     112.279 126.219 137.798  0.00  0.00    +0.000 A 
ATOM     21  C   UNL     1     111.918 125.447 137.694  0.00  0.00    +0.000 A 
BRANCH  20  22
ATOM     22  C   UNL     1     112.706 126.390 138.483  0.00  0.00    +0.000 A 
ATOM     23  C   UNL     1     112.313 126.655 139.158  0.00  0.00    +0.000 A 
ATOM     24  C   UNL     1     113.526 126.294 138.494  0.00  0.00    +0.000 A 
ATOM     25  C   UNL     1     112.741 126.825 139.843  0.00  0.00    +0.000 A 
ATOM     26  C   UNL     1     113.953 126.464 139.178  0.00  0.00    +0.000 A 
ATOM     27  C   UNL     1     113.560 126.730 139.854  0.00  0.00    +0.000 A 
BRANCH  27  28
ATOM     28  O   UNL     1     113.987 126.900 140.539  0.00  0.00    +0.000 OA
ATOM     29  C   UNL     1     114.191 127.679 140.715  0.00  0.00    +0.000 C 
ENDBRANCH  27  28
ENDBRANCH  20  22
ENDBRANCH   6  13
BRANCH   8  31
ATOM     30  O   UNL     1     114.447 128.379 135.508  0.00  0.00    +0.000 OA
ATOM     31  C   UNL     1     113.875 128.974 135.487  0.00  0.00    +0.000 C 
ENDBRANCH   8  31
BRANCH   4  32
ATOM     32  O   UNL     1     110.853 128.396 136.679  0.00  0.00    +0.000 OA
BRANCH  32  37
ATOM     33  O   UNL     1     110.168 129.307 135.817  0.00  0.00    +0.000 OA
ATOM     34  O   UNL     1     109.803 128.762 137.899  0.00  0.00    +0.000 OA
ATOM     35  O   UNL     1     108.593 129.855 137.646  0.00  0.00    +0.000 OA
ATOM     36  O   UNL     1     108.433 130.583 136.174  0.00  0.00    +0.000 OA
ATOM     37  C   UNL     1     110.247 128.943 136.553  0.00  0.00    +0.000 C 
ATOM     38  C   UNL     1     109.722 129.126 137.163  0.00  0.00    +0.000 C 
ATOM     39  C   UNL     1     109.118 129.672 137.036  0.00  0.00    +0.000 C 
ATOM     40  C   UNL     1     109.038 130.036 136.301  0.00  0.00    +0.000 C 
ATOM     41  C   UNL     1     109.563 129.853 135.691  0.00  0.00    +0.000 C 
ATOM     42  C   UNL     1     109.483 130.217 134.954  0.00  0.00    +0.000 C 
ENDBRANCH  32  37
ENDBRANCH   4  32
TORSDOF 6
ENDMDL
MODEL 5
REMARK VINA RESULT:     -10.2      2.129      4.087
REMARK  Name = 44257875
REMARK  6 active torsions:
REMARK  status: ('A' for Active; 'I' for Inactive)
REMARK    1  A    between atoms: O_1  and  C_15
REMARK    2  A    between atoms: O_1  and  C_20
REMARK    3  A    between atoms: O_14  and  C_41
REMARK    4  A    between atoms: C_17  and  C_25
REMARK    5  A    between atoms: C_19  and  C_26
REMARK    6  A    between atoms: C_34  and  C_36
REMARK                            x       y       z     vdW  Elec       q    Type
REMARK                         _______ _______ _______ _____ _____    ______ ____
ROOT
ATOM      1  O   UNL     1     111.922 130.483 136.820  0.00  0.00    +0.000 OA
ATOM      2  O   UNL     1     112.190 130.671 139.273  0.00  0.00    +0.000 OA
ATOM      3  O   UNL     1     110.682 130.699 138.603  0.00  0.00    +0.000 OA
ATOM      4  C   UNL     1     112.765 130.532 137.972  0.00  0.00    +0.000 C 
ATOM      5  C   UNL     1     112.101 130.609 138.456  0.00  0.00    +0.000 C 
ATOM      6  C   UNL     1     112.676 130.469 137.155  0.00  0.00    +0.000 C 
ATOM      7  C   UNL     1     111.347 130.622 138.121  0.00  0.00    +0.000 C 
ATOM      8  C   UNL     1     111.258 130.559 137.302  0.00  0.00    +0.000 C 
ENDROOT
BRANCH   6  13
ATOM      9  O   UNL     1     112.981 129.005 136.444  0.00  0.00    +0.000 OA
ATOM     10  O   UNL     1     113.672 131.762 136.913  0.00  0.00    +0.000 OA
ATOM     11  O   UNL     1     115.333 130.165 135.222  0.00  0.00    +0.000 OA
ATOM     12  O   UNL     1     115.021 128.781 134.962  0.00  0.00    +0.000 OA
ATOM     13  C   UNL     1     113.341 130.392 136.672  0.00  0.00    +0.000 A 
ATOM     14  C   UNL     1     113.507 129.671 136.310  0.00  0.00    +0.000 A 
ATOM     15  C   UNL     1     113.839 131.039 136.550  0.00  0.00    +0.000 A 
ATOM     16  C   UNL     1     114.171 129.594 135.826  0.00  0.00    +0.000 A 
ATOM     17  C   UNL     1     114.503 130.964 136.067  0.00  0.00    +0.000 A 
ATOM     18  C   UNL     1     114.669 130.240 135.705  0.00  0.00    +0.000 A 
ATOM     19  C   UNL     1     114.355 128.847 135.444  0.00  0.00    +0.000 A 
ATOM     20  C   UNL     1     113.148 128.249 136.069  0.00  0.00    +0.000 A 
ATOM     21  C   UNL     1     113.840 128.170 135.566  0.00  0.00    +0.000 A 
BRANCH  20  22
ATOM     22  C   UNL     1     112.648 127.604 136.192  0.00  0.00    +0.000 A 
ATOM     23  C   UNL     1     111.931 127.555 135.788  0.00  0.00    +0.000 A 
ATOM     24  C   UNL     1     112.866 127.008 136.720  0.00  0.00    +0.000 A 
ATOM     25  C   UNL     1     111.432 126.910 135.911  0.00  0.00    +0.000 A 
ATOM     26  C   UNL     1     112.367 126.364 136.843  0.00  0.00    +0.000 A 
ATOM     27  C   UNL     1     111.650 126.314 136.439  0.00  0.00    +0.000 A 
BRANCH  27  28
ATOM     28  O   UNL     1     111.150 125.670 136.562  0.00  0.00    +0.000 OA
ATOM     29  C   UNL     1     111.199 125.010 136.069  0.00  0.00    +0.000 C 
ENDBRANCH  27  28
ENDBRANCH  20  22
ENDBRANCH   6  13
BRANCH   8  31
ATOM     30  O   UNL     1     110.389 130.916 136.226  0.00  0.00    +0.000 OA
ATOM     31  C   UNL     1     110.504 130.573 136.968  0.00  0.00    +0.000 C 
ENDBRANCH   8  31
BRANCH   4  32
ATOM     32  O   UNL     1     113.519 130.518 138.307  0.00  0.00    +0.000 OA
BRANCH  32  37
ATOM     33  O   UNL     1     113.318 129.315 139.051  0.00  0.00    +0.000 OA
ATOM     34  O   UNL     1     114.503 131.091 139.501  0.00  0.00    +0.000 OA
ATOM     35  O   UNL     1     114.794 130.174 140.842  0.00  0.00    +0.000 OA
ATOM     36  O   UNL     1     114.101 128.684 140.988  0.00  0.00    +0.000 OA
ATOM     37  C   UNL     1     113.665 130.059 138.978  0.00  0.00    +0.000 C 
ATOM     38  C   UNL     1     114.157 130.346 139.575  0.00  0.00    +0.000 C 
ATOM     39  C   UNL     1     114.302 129.888 140.245  0.00  0.00    +0.000 C 
ATOM     40  C   UNL     1     113.956 129.143 140.318  0.00  0.00    +0.000 C 
ATOM     41  C   UNL     1     113.464 128.857 139.721  0.00  0.00    +0.000 C 
ATOM     42  C   UNL     1     113.117 128.111 139.794  0.00  0.00    +0.000 C 
ENDBRANCH  32  37
ENDBRANCH   4  32
TORSDOF 6
ENDMDL
MODEL 6
REMARK VINA RESULT:     -10.2      1.598      4.550
REMARK  Name = 44257875
REMARK  6 active torsions:
REMARK  status: ('A' for Active; 'I' for Inactive)
REMARK    1  A    between atoms: O_1  and  C_15
REMARK    2  A    between atoms: O_1  and  C_20
REMARK    3  A    between atoms: O_14  and  C_41
REMARK    4  A    between atoms: C_17  and  C_25
REMARK    5  A    between atoms: C_19  and  C_26
REMARK    6  A    between atoms: C_34  and  C_36
REMARK                            x       y       z     vdW  Elec       q    Type
REMARK                         _______ _______ _______ _____ _____    ______ ____
ROOT
ATOM      1  O   UNL     1     110.857 125.594 138.662  0.00  0.00    +0.000 OA
ATOM      2  O   UNL     1     109.645 127.208 137.230  0.00  0.00    +0.000 OA
ATOM      3  O   UNL     1     109.072 126.848 138.735  0.00  0.00    +0.000 OA
ATOM      4  C   UNL     1     110.740 126.312 137.432  0.00  0.00    +0.000 C 
ATOM      5  C   UNL     1     110.049 126.670 137.707  0.00  0.00    +0.000 C 
ATOM      6  C   UNL     1     111.144 125.774 137.909  0.00  0.00    +0.000 C 
ATOM      7  C   UNL     1     109.763 126.491 138.459  0.00  0.00    +0.000 C 
ATOM      8  C   UNL     1     110.167 125.952 138.937  0.00  0.00    +0.000 C 
ENDROOT
BRANCH   6  13
ATOM      9  O   UNL     1     112.593 126.220 138.575  0.00  0.00    +0.000 OA
ATOM     10  O   UNL     1     111.063 124.635 136.718  0.00  0.00    +0.000 OA
ATOM     11  O   UNL     1     113.904 124.338 136.810  0.00  0.00    +0.000 OA
ATOM     12  O   UNL     1     114.706 125.113 137.726  0.00  0.00    +0.000 OA
ATOM     13  C   UNL     1     111.834 125.415 137.635  0.00  0.00    +0.000 A 
ATOM     14  C   UNL     1     112.564 125.625 137.955  0.00  0.00    +0.000 A 
ATOM     15  C   UNL     1     111.794 124.846 137.039  0.00  0.00    +0.000 A 
ATOM     16  C   UNL     1     113.255 125.267 137.681  0.00  0.00    +0.000 A 
ATOM     17  C   UNL     1     112.484 124.487 136.764  0.00  0.00    +0.000 A 
ATOM     18  C   UNL     1     113.214 124.697 137.085  0.00  0.00    +0.000 A 
ATOM     19  C   UNL     1     114.021 125.477 138.007  0.00  0.00    +0.000 A 
ATOM     20  C   UNL     1     113.351 126.444 138.914  0.00  0.00    +0.000 A 
ATOM     21  C   UNL     1     114.070 126.069 138.627  0.00  0.00    +0.000 A 
BRANCH  20  22
ATOM     22  C   UNL     1     113.388 127.013 139.509  0.00  0.00    +0.000 A 
ATOM     23  C   UNL     1     113.299 126.791 140.299  0.00  0.00    +0.000 A 
ATOM     24  C   UNL     1     113.515 127.805 139.315  0.00  0.00    +0.000 A 
ATOM     25  C   UNL     1     113.337 127.361 140.894  0.00  0.00    +0.000 A 
ATOM     26  C   UNL     1     113.552 128.375 139.909  0.00  0.00    +0.000 A 
ATOM     27  C   UNL     1     113.463 128.153 140.700  0.00  0.00    +0.000 A 
BRANCH  27  28
ATOM     28  O   UNL     1     113.500 128.723 141.295  0.00  0.00    +0.000 OA
ATOM     29  C   UNL     1     112.866 129.237 141.415  0.00  0.00    +0.000 C 
ENDBRANCH  27  28
ENDBRANCH  20  22
ENDBRANCH   6  13
BRANCH   8  31
ATOM     30  O   UNL     1     110.039 125.036 140.026  0.00  0.00    +0.000 OA
ATOM     31  C   UNL     1     109.881 125.773 139.690  0.00  0.00    +0.000 C 
ENDBRANCH   8  31
BRANCH   4  32
ATOM     32  O   UNL     1     111.026 126.491 136.680  0.00  0.00    +0.000 OA
BRANCH  32  37
ATOM     33  O   UNL     1     111.276 127.871 136.954  0.00  0.00    +0.000 OA
ATOM     34  O   UNL     1     110.648 126.870 135.119  0.00  0.00    +0.000 OA
ATOM     35  O   UNL     1     110.710 128.439 134.612  0.00  0.00    +0.000 OA
ATOM     36  O   UNL     1     111.149 129.630 135.667  0.00  0.00    +0.000 OA
ATOM     37  C   UNL     1     111.057 127.276 136.426  0.00  0.00    +0.000 C 
ATOM     38  C   UNL     1     110.868 127.466 135.646  0.00  0.00    +0.000 C 
ATOM     39  C   UNL     1     110.899 128.250 135.393  0.00  0.00    +0.000 C 
ATOM     40  C   UNL     1     111.118 128.845 135.919  0.00  0.00    +0.000 C 
ATOM     41  C   UNL     1     111.307 128.655 136.700  0.00  0.00    +0.000 C 
ATOM     42  C   UNL     1     111.527 129.251 137.228  0.00  0.00    +0.000 C 
ENDBRANCH  32  37
ENDBRANCH   4  32
TORSDOF 6
ENDMDL
MODEL 7
REMARK VINA RESULT:      -9.9      1.505      3.229
REMARK  Name = 44257875
REMARK  6 active torsions:
REMARK  status: ('A' for Active; 'I' for Inactive)
REMARK    1  A    between atoms: O_1  and  C_15
REMARK    2  A    between atoms: O_1  and  C_20
REMARK    3  A    between atoms: O_14  and  C_41
REMARK    4  A    between atoms: C_17  and  C_25
REMARK    5  A    between atoms: C_19  and  C_26
REMARK    6  A    between atoms: C_34  and  C_36
REMARK                            x       y       z     vdW  Elec       q    Type
REMARK                         _______ _______ _______ _____ _____    ______ ____
ROOT
ATOM      1  O   UNL     1     110.723 126.343 136.018  0.00  0.00    +0.000 OA
ATOM      2  O   UNL     1     109.437 126.602 138.117  0.00  0.00    +0.000 OA
ATOM      3  O   UNL     1     108.873 127.267 136.716  0.00  0.00    +0.000 OA
ATOM      4  C   UNL     1     110.577 126.096 137.418  0.00  0.00    +0.000 C 
ATOM      5  C   UNL     1     109.866 126.515 137.418  0.00  0.00    +0.000 C 
ATOM      6  C   UNL     1     111.005 126.010 136.719  0.00  0.00    +0.000 C 
ATOM      7  C   UNL     1     109.584 126.848 136.718  0.00  0.00    +0.000 C 
ATOM      8  C   UNL     1     110.012 126.762 136.017  0.00  0.00    +0.000 C 
ENDROOT
BRANCH   6  13
ATOM      9  O   UNL     1     112.426 126.849 136.581  0.00  0.00    +0.000 OA
ATOM     10  O   UNL     1     110.992 124.365 136.853  0.00  0.00    +0.000 OA
ATOM     11  O   UNL     1     113.846 124.331 136.718  0.00  0.00    +0.000 OA
ATOM     12  O   UNL     1     114.601 125.553 136.582  0.00  0.00    +0.000 OA
ATOM     13  C   UNL     1     111.716 125.591 136.718  0.00  0.00    +0.000 A 
ATOM     14  C   UNL     1     112.432 125.993 136.651  0.00  0.00    +0.000 A 
ATOM     15  C   UNL     1     111.709 124.769 136.786  0.00  0.00    +0.000 A 
ATOM     16  C   UNL     1     113.143 125.574 136.651  0.00  0.00    +0.000 A 
ATOM     17  C   UNL     1     112.419 124.348 136.786  0.00  0.00    +0.000 A 
ATOM     18  C   UNL     1     113.136 124.752 136.718  0.00  0.00    +0.000 A 
ATOM     19  C   UNL     1     113.895 125.981 136.581  0.00  0.00    +0.000 A 
ATOM     20  C   UNL     1     113.170 127.275 136.511  0.00  0.00    +0.000 A 
ATOM     21  C   UNL     1     113.909 126.837 136.510  0.00  0.00    +0.000 A 
BRANCH  20  22
ATOM     22  C   UNL     1     113.173 128.097 136.443  0.00  0.00    +0.000 A 
ATOM     23  C   UNL     1     113.009 128.452 135.717  0.00  0.00    +0.000 A 
ATOM     24  C   UNL     1     113.341 128.564 137.102  0.00  0.00    +0.000 A 
ATOM     25  C   UNL     1     113.013 129.275 135.651  0.00  0.00    +0.000 A 
ATOM     26  C   UNL     1     113.345 129.386 137.036  0.00  0.00    +0.000 A 
ATOM     27  C   UNL     1     113.181 129.742 136.310  0.00  0.00    +0.000 A 
BRANCH  27  28
ATOM     28  O   UNL     1     113.184 130.564 136.242  0.00  0.00    +0.000 OA
ATOM     29  C   UNL     1     113.834 130.997 136.508  0.00  0.00    +0.000 C 
ENDBRANCH  27  28
ENDBRANCH  20  22
ENDBRANCH   6  13
BRANCH   8  31
ATOM     30  O   UNL     1     109.770 126.667 134.612  0.00  0.00    +0.000 OA
ATOM     31  C   UNL     1     109.730 127.094 135.317  0.00  0.00    +0.000 C 
ENDBRANCH   8  31
BRANCH   4  32
ATOM     32  O   UNL     1     110.859 125.763 138.118  0.00  0.00    +0.000 OA
BRANCH  32  37
ATOM     33  O   UNL     1     111.030 127.000 138.813  0.00  0.00    +0.000 OA
ATOM     34  O   UNL     1     110.432 125.028 139.532  0.00  0.00    +0.000 OA
ATOM     35  O   UNL     1     110.391 125.897 140.934  0.00  0.00    +0.000 OA
ATOM     36  O   UNL     1     110.776 127.502 140.922  0.00  0.00    +0.000 OA
ATOM     37  C   UNL     1     110.838 126.198 138.819  0.00  0.00    +0.000 C 
ATOM     38  C   UNL     1     110.625 125.831 139.527  0.00  0.00    +0.000 C 
ATOM     39  C   UNL     1     110.604 126.265 140.227  0.00  0.00    +0.000 C 
ATOM     40  C   UNL     1     110.796 127.067 140.221  0.00  0.00    +0.000 C 
ATOM     41  C   UNL     1     111.009 127.434 139.514  0.00  0.00    +0.000 C 
ATOM     42  C   UNL     1     111.202 128.237 139.507  0.00  0.00    +0.000 C 
ENDBRANCH  32  37
ENDBRANCH   4  32
TORSDOF 6
ENDMDL
MODEL 8
REMARK VINA RESULT:      -9.9      1.652      4.788
REMARK  Name = 44257875
REMARK  6 active torsions:
REMARK  status: ('A' for Active; 'I' for Inactive)
REMARK    1  A    between atoms: O_1  and  C_15
REMARK    2  A    between atoms: O_1  and  C_20
REMARK    3  A    between atoms: O_14  and  C_41
REMARK    4  A    between atoms: C_17  and  C_25
REMARK    5  A    between atoms: C_19  and  C_26
REMARK    6  A    between atoms: C_34  and  C_36
REMARK                            x       y       z     vdW  Elec       q    Type
REMARK                         _______ _______ _______ _____ _____    ______ ____
ROOT
ATOM      1  O   UNL     1     112.123 128.859 138.701  0.00  0.00    +0.000 OA
ATOM      2  O   UNL     1     109.682 129.076 138.359  0.00  0.00    +0.000 OA
ATOM      3  O   UNL     1     110.265 128.431 139.762  0.00  0.00    +0.000 OA
ATOM      4  C   UNL     1     111.018 129.254 137.886  0.00  0.00    +0.000 C 
ATOM      5  C   UNL     1     110.495 129.004 138.473  0.00  0.00    +0.000 C 
ATOM      6  C   UNL     1     111.832 129.182 137.999  0.00  0.00    +0.000 C 
ATOM      7  C   UNL     1     110.787 128.681 139.174  0.00  0.00    +0.000 C 
ATOM      8  C   UNL     1     111.601 128.609 139.288  0.00  0.00    +0.000 C 
ENDROOT
BRANCH   6  13
ATOM      9  O   UNL     1     112.648 128.041 137.119  0.00  0.00    +0.000 OA
ATOM     10  O   UNL     1     112.048 130.794 137.721  0.00  0.00    +0.000 OA
ATOM     11  O   UNL     1     113.923 130.185 135.652  0.00  0.00    +0.000 OA
ATOM     12  O   UNL     1     114.251 128.819 135.320  0.00  0.00    +0.000 OA
ATOM     13  C   UNL     1     112.355 129.432 137.412  0.00  0.00    +0.000 A 
ATOM     14  C   UNL     1     112.769 128.877 136.965  0.00  0.00    +0.000 A 
ATOM     15  C   UNL     1     112.463 130.238 137.273  0.00  0.00    +0.000 A 
ATOM     16  C   UNL     1     113.292 129.127 136.378  0.00  0.00    +0.000 A 
ATOM     17  C   UNL     1     112.986 130.489 136.686  0.00  0.00    +0.000 A 
ATOM     18  C   UNL     1     113.401 129.933 136.239  0.00  0.00    +0.000 A 
ATOM     19  C   UNL     1     113.730 128.559 135.905  0.00  0.00    +0.000 A 
ATOM     20  C   UNL     1     113.077 127.457 136.656  0.00  0.00    +0.000 A 
ATOM     21  C   UNL     1     113.622 127.718 136.045  0.00  0.00    +0.000 A 
BRANCH  20  22
ATOM     22  C   UNL     1     112.967 126.652 136.798  0.00  0.00    +0.000 A 
ATOM     23  C   UNL     1     113.382 126.279 137.405  0.00  0.00    +0.000 A 
ATOM     24  C   UNL     1     112.441 126.219 136.331  0.00  0.00    +0.000 A 
ATOM     25  C   UNL     1     113.271 125.474 137.546  0.00  0.00    +0.000 A 
ATOM     26  C   UNL     1     112.331 125.415 136.472  0.00  0.00    +0.000 A 
ATOM     27  C   UNL     1     112.746 125.041 137.080  0.00  0.00    +0.000 A 
BRANCH  27  28
ATOM     28  O   UNL     1     112.636 124.236 137.221  0.00  0.00    +0.000 OA
ATOM     29  C   UNL     1     112.016 123.834 136.854  0.00  0.00    +0.000 C 
ENDBRANCH  27  28
ENDBRANCH  20  22
ENDBRANCH   6  13
BRANCH   8  31
ATOM     30  O   UNL     1     112.596 128.571 140.313  0.00  0.00    +0.000 OA
ATOM     31  C   UNL     1     111.893 128.286 139.989  0.00  0.00    +0.000 C 
ENDBRANCH   8  31
BRANCH   4  32
ATOM     32  O   UNL     1     110.727 129.576 137.184  0.00  0.00    +0.000 OA
BRANCH  32  37
ATOM     33  O   UNL     1     110.023 128.405 136.767  0.00  0.00    +0.000 OA
ATOM     34  O   UNL     1     109.557 130.522 136.506  0.00  0.00    +0.000 OA
ATOM     35  O   UNL     1     108.268 129.823 135.750  0.00  0.00    +0.000 OA
ATOM     36  O   UNL     1     108.148 128.179 135.672  0.00  0.00    +0.000 OA
ATOM     37  C   UNL     1     110.082 129.227 136.806  0.00  0.00    +0.000 C 
ATOM     38  C   UNL     1     109.497 129.700 136.467  0.00  0.00    +0.000 C 
ATOM     39  C   UNL     1     108.853 129.350 136.089  0.00  0.00    +0.000 C 
ATOM     40  C   UNL     1     108.793 128.529 136.050  0.00  0.00    +0.000 C 
ATOM     41  C   UNL     1     109.378 128.056 136.389  0.00  0.00    +0.000 C 
ATOM     42  C   UNL     1     109.318 127.234 136.350  0.00  0.00    +0.000 C 
ENDBRANCH  32  37
ENDBRANCH   4  32
TORSDOF 6
ENDMDL
MODEL 9
REMARK VINA RESULT:      -9.9      1.638      4.658
REMARK  Name = 44257875
REMARK  6 active torsions:
REMARK  status: ('A' for Active; 'I' for Inactive)
REMARK    1  A    between atoms: O_1  and  C_15
REMARK    2  A    between atoms: O_1  and  C_20
REMARK    3  A    between atoms: O_14  and  C_41
REMARK    4  A    between atoms: C_17  and  C_25
REMARK    5  A    between atoms: C_19  and  C_26
REMARK    6  A    between atoms: C_34  and  C_36
REMARK                            x       y       z     vdW  Elec       q    Type
REMARK                         _______ _______ _______ _____ _____    ______ ____
ROOT
ATOM      1  O   UNL     1     111.312 128.501 138.351  0.00  0.00    +0.000 OA
ATOM      2  O   UNL     1     112.033 129.905 136.446  0.00  0.00    +0.000 OA
ATOM      3  O   UNL     1     110.570 129.143 136.402  0.00  0.00    +0.000 OA
ATOM      4  C   UNL     1     112.284 129.350 137.738  0.00  0.00    +0.000 C 
ATOM      5  C   UNL     1     111.793 129.438 137.081  0.00  0.00    +0.000 C 
ATOM      6  C   UNL     1     112.044 128.882 138.373  0.00  0.00    +0.000 C 
ATOM      7  C   UNL     1     111.062 129.056 137.058  0.00  0.00    +0.000 C 
ATOM      8  C   UNL     1     110.821 128.588 137.694  0.00  0.00    +0.000 C 
ENDROOT
BRANCH   6  13
ATOM      9  O   UNL     1     112.819 127.437 138.603  0.00  0.00    +0.000 OA
ATOM     10  O   UNL     1     112.236 130.134 139.430  0.00  0.00    +0.000 OA
ATOM     11  O   UNL     1     114.005 128.534 141.004  0.00  0.00    +0.000 OA
ATOM     12  O   UNL     1     114.322 127.179 140.624  0.00  0.00    +0.000 OA
ATOM     13  C   UNL     1     112.534 128.794 139.031  0.00  0.00    +0.000 A 
ATOM     14  C   UNL     1     112.928 128.082 139.160  0.00  0.00    +0.000 A 
ATOM     15  C   UNL     1     112.630 129.421 139.559  0.00  0.00    +0.000 A 
ATOM     16  C   UNL     1     113.418 127.994 139.818  0.00  0.00    +0.000 A 
ATOM     17  C   UNL     1     113.121 129.334 140.217  0.00  0.00    +0.000 A 
ATOM     18  C   UNL     1     113.515 128.620 140.346  0.00  0.00    +0.000 A 
ATOM     19  C   UNL     1     113.834 127.257 139.964  0.00  0.00    +0.000 A 
ATOM     20  C   UNL     1     113.227 126.691 138.732  0.00  0.00    +0.000 A 
ATOM     21  C   UNL     1     113.738 126.601 139.417  0.00  0.00    +0.000 A 
BRANCH  20  22
ATOM     22  C   UNL     1     113.129 126.066 138.202  0.00  0.00    +0.000 A 
ATOM     23  C   UNL     1     112.423 125.639 138.195  0.00  0.00    +0.000 A 
ATOM     24  C   UNL     1     113.736 125.870 137.679  0.00  0.00    +0.000 A 
ATOM     25  C   UNL     1     112.326 125.014 137.664  0.00  0.00    +0.000 A 
ATOM     26  C   UNL     1     113.639 125.246 137.150  0.00  0.00    +0.000 A 
ATOM     27  C   UNL     1     112.933 124.818 137.142  0.00  0.00    +0.000 A 
BRANCH  27  28
ATOM     28  O   UNL     1     112.835 124.193 136.612  0.00  0.00    +0.000 OA
ATOM     29  C   UNL     1     112.104 123.817 136.549  0.00  0.00    +0.000 C 
ENDBRANCH  27  28
ENDBRANCH  20  22
ENDBRANCH   6  13
BRANCH   8  31
ATOM     30  O   UNL     1     109.608 128.199 138.342  0.00  0.00    +0.000 OA
ATOM     31  C   UNL     1     110.090 128.207 137.672  0.00  0.00    +0.000 C 
ENDBRANCH   8  31
BRANCH   4  32
ATOM     32  O   UNL     1     113.015 129.731 137.760  0.00  0.00    +0.000 OA
BRANCH  32  37
ATOM     33  O   UNL     1     113.569 129.044 136.637  0.00  0.00    +0.000 OA
ATOM     34  O   UNL     1     113.858 131.088 137.346  0.00  0.00    +0.000 OA
ATOM     35  O   UNL     1     114.833 131.079 136.015  0.00  0.00    +0.000 OA
ATOM     36  O   UNL     1     114.966 129.713 135.099  0.00  0.00    +0.000 OA
ATOM     37  C   UNL     1     113.503 129.727 137.094  0.00  0.00    +0.000 C 
ATOM     38  C   UNL     1     113.925 130.405 136.887  0.00  0.00    +0.000 C 
ATOM     39  C   UNL     1     114.412 130.400 136.223  0.00  0.00    +0.000 C 
ATOM     40  C   UNL     1     114.478 129.718 135.765  0.00  0.00    +0.000 C 
ATOM     41  C   UNL     1     114.057 129.040 135.972  0.00  0.00    +0.000 C 
ATOM     42  C   UNL     1     114.123 128.356 135.513  0.00  0.00    +0.000 C 
ENDBRANCH  32  37
ENDBRANCH   4  32
TORSDOF 6
ENDMDL
MODEL 10
REMARK VINA RESULT:      -9.8      1.613      4.282
REMARK  Name = 44257875
REMARK  6 active torsions:
REMARK  status: ('A' for Active; 'I' for Inactive)
REMARK    1  A    between atoms: O_1  and  C_15
REMARK    2  A    between atoms: O_1  and  C_20
REMARK    3  A    between atoms: O_14  and  C_41
REMARK    4  A    between atoms: C_17  and  C_25
REMARK    5  A    between atoms: C_19  and  C_26
REMARK    6  A    between atoms: C_34  and  C_36
REMARK                            x       y       z     vdW  Elec       q    Type
REMARK                         _______ _______ _______ _____ _____    ______ ____
ROOT
ATOM      1  O   UNL     1     110.423 126.671 138.393  0.00  0.00    +0.000 OA
ATOM      2  O   UNL     1     111.404 128.929 138.646  0.00  0.00    +0.000 OA
ATOM      3  O   UNL     1     111.511 127.840 139.881  0.00  0.00    +0.000 OA
ATOM      4  C   UNL     1     110.696 127.967 137.860  0.00  0.00    +0.000 C 
ATOM      5  C   UNL     1     111.077 128.176 138.561  0.00  0.00    +0.000 C 
ATOM      6  C   UNL     1     110.370 127.215 137.776  0.00  0.00    +0.000 C 
ATOM      7  C   UNL     1     111.131 127.632 139.179  0.00  0.00    +0.000 C 
ATOM      8  C   UNL     1     110.804 126.879 139.095  0.00  0.00    +0.000 C 
ENDROOT
BRANCH   6  13
ATOM      9  O   UNL     1     111.090 126.109 136.776  0.00  0.00    +0.000 OA
ATOM     10  O   UNL     1     108.917 127.897 137.392  0.00  0.00    +0.000 OA
ATOM     11  O   UNL     1     108.844 126.380 134.971  0.00  0.00    +0.000 OA
ATOM     12  O   UNL     1     109.913 125.474 134.626  0.00  0.00    +0.000 OA
ATOM     13  C   UNL     1     109.989 127.006 137.074  0.00  0.00    +0.000 A 
ATOM     14  C   UNL     1     110.333 126.457 136.565  0.00  0.00    +0.000 A 
ATOM     15  C   UNL     1     109.262 127.347 136.882  0.00  0.00    +0.000 A 
ATOM     16  C   UNL     1     109.952 126.248 135.864  0.00  0.00    +0.000 A 
ATOM     17  C   UNL     1     108.881 127.139 136.181  0.00  0.00    +0.000 A 
ATOM     18  C   UNL     1     109.226 126.589 135.672  0.00  0.00    +0.000 A 
ATOM     19  C   UNL     1     110.301 125.677 135.325  0.00  0.00    +0.000 A 
ATOM     20  C   UNL     1     111.455 125.535 136.249  0.00  0.00    +0.000 A 
ATOM     21  C   UNL     1     111.058 125.318 135.519  0.00  0.00    +0.000 A 
BRANCH  20  22
ATOM     22  C   UNL     1     112.181 125.196 136.444  0.00  0.00    +0.000 A 
ATOM     23  C   UNL     1     112.206 124.484 136.861  0.00  0.00    +0.000 A 
ATOM     24  C   UNL     1     112.883 125.568 136.221  0.00  0.00    +0.000 A 
ATOM     25  C   UNL     1     112.933 124.146 137.055  0.00  0.00    +0.000 A 
ATOM     26  C   UNL     1     113.609 125.230 136.415  0.00  0.00    +0.000 A 
ATOM     27  C   UNL     1     113.635 124.518 136.832  0.00  0.00    +0.000 A 
BRANCH  27  28
ATOM     28  O   UNL     1     114.361 124.178 137.027  0.00  0.00    +0.000 OA
ATOM     29  C   UNL     1     114.860 124.553 137.566  0.00  0.00    +0.000 C 
ENDBRANCH  27  28
ENDBRANCH  20  22
ENDBRANCH   6  13
BRANCH   8  31
ATOM     30  O   UNL     1     110.311 125.718 139.768  0.00  0.00    +0.000 OA
ATOM     31  C   UNL     1     110.857 126.334 139.713  0.00  0.00    +0.000 C 
ENDBRANCH   8  31
BRANCH   4  32
ATOM     32  O   UNL     1     110.642 128.512 137.242  0.00  0.00    +0.000 OA
BRANCH  32  37
ATOM     33  O   UNL     1     112.043 128.601 136.976  0.00  0.00    +0.000 OA
ATOM     34  O   UNL     1     110.478 130.121 136.917  0.00  0.00    +0.000 OA
ATOM     35  O   UNL     1     111.797 131.015 136.488  0.00  0.00    +0.000 OA
ATOM     36  O   UNL     1     113.280 130.299 136.384  0.00  0.00    +0.000 OA
ATOM     37  C   UNL     1     111.302 128.959 137.027  0.00  0.00    +0.000 C 
ATOM     38  C   UNL     1     111.220 129.764 136.865  0.00  0.00    +0.000 C 
ATOM     39  C   UNL     1     111.879 130.210 136.650  0.00  0.00    +0.000 C 
ATOM     40  C   UNL     1     112.620 129.853 136.598  0.00  0.00    +0.000 C 
ATOM     41  C   UNL     1     112.702 129.048 136.761  0.00  0.00    +0.000 C 
ATOM     42  C   UNL     1     113.444 128.690 136.709  0.00  0.00    +0.000 C 
ENDBRANCH  32  37
ENDBRANCH   4  32
TORSDOF 6
ENDMDL
