MODEL 1
REMARK VINA RESULT:      -9.1      0.000      0.000
REMARK  Name = 42608074
REMARK  6 active torsions:
REMARK  status: ('A' for Active; 'I' for Inactive)
REMARK    1  A    between atoms: O_2  and  C_15
REMARK    2  A    between atoms: O_2  and  C_17
REMARK    3  A    between atoms: O_8  and  C_25
REMARK    4  A    between atoms: O_10  and  C_33
REMARK    5  A    between atoms: C_14  and  C_16
REMARK    6  A    between atoms: C_20  and  C_26
REMARK                            x       y       z     vdW  Elec       q    Type
REMARK                         _______ _______ _______ _____ _____    ______ ____
ROOT
ATOM      1  O   UNL     1     113.655 127.719 136.292  0.00  0.00    +0.000 OA
ATOM      2  O   UNL     1     112.343 128.813 138.161  0.00  0.00    +0.000 OA
ATOM      3  C   UNL     1     113.210 129.748 137.073  0.00  0.00    +0.000 A 
ATOM      4  C   UNL     1     113.214 128.927 136.994  0.00  0.00    +0.000 A 
ATOM      5  C   UNL     1     113.643 128.572 136.385  0.00  0.00    +0.000 A 
ATOM      6  C   UNL     1     113.215 127.226 136.843  0.00  0.00    +0.000 C 
ATOM      7  C   UNL     1     113.634 130.215 136.541  0.00  0.00    +0.000 A 
ATOM      8  C   UNL     1     112.768 127.595 137.479  0.00  0.00    +0.000 C 
ATOM      9  C   UNL     1     112.768 128.452 137.555  0.00  0.00    +0.000 C 
ATOM     10  C   UNL     1     114.067 129.040 135.853  0.00  0.00    +0.000 A 
ATOM     11  C   UNL     1     114.063 129.861 135.932  0.00  0.00    +0.000 A 
ATOM     12  C   UNL     1     113.630 131.037 136.620  0.00  0.00    +0.000 C 
ATOM     13  C   UNL     1     114.495 128.686 135.244  0.00  0.00    +0.000 C 
ENDROOT
BRANCH   6  14
ATOM     14  C   UNL     1     113.221 126.405 136.762  0.00  0.00    +0.000 A 
ATOM     15  C   UNL     1     113.861 125.968 137.044  0.00  0.00    +0.000 A 
ATOM     16  C   UNL     1     112.586 126.022 136.400  0.00  0.00    +0.000 A 
ATOM     17  C   UNL     1     113.867 125.147 136.963  0.00  0.00    +0.000 A 
ATOM     18  C   UNL     1     112.593 125.200 136.320  0.00  0.00    +0.000 A 
ATOM     19  C   UNL     1     113.233 124.763 136.601  0.00  0.00    +0.000 A 
BRANCH  19  20
ATOM     20  O   UNL     1     113.240 123.942 136.521  0.00  0.00    +0.000 OA
ATOM     21  C   UNL     1     112.621 123.494 136.830  0.00  0.00    +0.000 C 
ENDBRANCH  19  20
ENDBRANCH   6  14
BRANCH  11  22
ATOM     22  O   UNL     1     114.487 130.329 135.400  0.00  0.00    +0.000 OA
ATOM     23  C   UNL     1     115.261 130.554 135.576  0.00  0.00    +0.000 C 
ENDBRANCH  11  22
BRANCH   3  24
ATOM     24  O   UNL     1     112.782 130.102 137.683  0.00  0.00    +0.000 OA
BRANCH  24  33
ATOM     25  O   UNL     1     111.653 130.313 136.831  0.00  0.00    +0.000 OA
ATOM     26  O   UNL     1     110.800 132.037 138.389  0.00  0.00    +0.000 OA
ATOM     27  O   UNL     1     109.957 131.673 137.019  0.00  0.00    +0.000 OA
ATOM     28  O   UNL     1     112.212 131.251 138.721  0.00  0.00    +0.000 OA
ATOM     29  C   UNL     1     111.084 131.462 137.870  0.00  0.00    +0.000 C 
ATOM     30  C   UNL     1     110.663 131.280 137.185  0.00  0.00    +0.000 C 
ATOM     31  C   UNL     1     111.791 131.069 138.036  0.00  0.00    +0.000 C 
ATOM     32  C   UNL     1     110.948 130.706 136.665  0.00  0.00    +0.000 C 
ATOM     33  C   UNL     1     112.076 130.495 137.517  0.00  0.00    +0.000 C 
BRANCH  32  35
ATOM     34  O   UNL     1     110.180 129.780 135.893  0.00  0.00    +0.000 OA
ATOM     35  C   UNL     1     110.526 130.524 135.980  0.00  0.00    +0.000 C 
ENDBRANCH  32  35
ENDBRANCH  24  33
ENDBRANCH   3  24
TORSDOF 6
ENDMDL
MODEL 2
REMARK VINA RESULT:      -8.9      2.088      4.585
REMARK  Name = 42608074
REMARK  6 active torsions:
REMARK  status: ('A' for Active; 'I' for Inactive)
REMARK    1  A    between atoms: O_2  and  C_15
REMARK    2  A    between atoms: O_2  and  C_17
REMARK    3  A    between atoms: O_8  and  C_25
REMARK    4  A    between atoms: O_10  and  C_33
REMARK    5  A    between atoms: C_14  and  C_16
REMARK    6  A    between atoms: C_20  and  C_26
REMARK                            x       y       z     vdW  Elec       q    Type
REMARK                         _______ _______ _______ _____ _____    ______ ____
ROOT
ATOM      1  O   UNL     1     113.873 127.606 136.165  0.00  0.00    +0.000 OA
ATOM      2  O   UNL     1     111.379 127.986 135.952  0.00  0.00    +0.000 OA
ATOM      3  C   UNL     1     111.970 126.502 136.459  0.00  0.00    +0.000 A 
ATOM      4  C   UNL     1     112.500 127.109 136.279  0.00  0.00    +0.000 A 
ATOM      5  C   UNL     1     113.312 126.982 136.349  0.00  0.00    +0.000 A 
ATOM      6  C   UNL     1     113.584 128.372 135.903  0.00  0.00    +0.000 C 
ATOM      7  C   UNL     1     112.254 125.769 136.709  0.00  0.00    +0.000 A 
ATOM      8  C   UNL     1     112.738 128.504 135.830  0.00  0.00    +0.000 C 
ATOM      9  C   UNL     1     112.192 127.868 136.019  0.00  0.00    +0.000 C 
ATOM     10  C   UNL     1     113.594 126.249 136.600  0.00  0.00    +0.000 A 
ATOM     11  C   UNL     1     113.066 125.642 136.780  0.00  0.00    +0.000 A 
ATOM     12  C   UNL     1     111.724 125.161 136.890  0.00  0.00    +0.000 C 
ATOM     13  C   UNL     1     114.407 126.122 136.670  0.00  0.00    +0.000 C 
ENDROOT
BRANCH   6  14
ATOM     14  C   UNL     1     114.116 128.977 135.724  0.00  0.00    +0.000 A 
ATOM     15  C   UNL     1     114.521 128.971 135.005  0.00  0.00    +0.000 A 
ATOM     16  C   UNL     1     114.242 129.589 136.263  0.00  0.00    +0.000 A 
ATOM     17  C   UNL     1     115.052 129.575 134.825  0.00  0.00    +0.000 A 
ATOM     18  C   UNL     1     114.774 130.194 136.083  0.00  0.00    +0.000 A 
ATOM     19  C   UNL     1     115.179 130.187 135.365  0.00  0.00    +0.000 A 
BRANCH  19  20
ATOM     20  O   UNL     1     115.710 130.792 135.184  0.00  0.00    +0.000 OA
ATOM     21  C   UNL     1     115.469 131.423 134.711  0.00  0.00    +0.000 C 
ENDBRANCH  19  20
ENDBRANCH   6  14
BRANCH  11  22
ATOM     22  O   UNL     1     113.348 124.908 137.030  0.00  0.00    +0.000 OA
ATOM     23  C   UNL     1     113.494 124.313 136.478  0.00  0.00    +0.000 C 
ENDBRANCH  11  22
BRANCH   3  24
ATOM     24  O   UNL     1     111.158 126.628 136.389  0.00  0.00    +0.000 OA
BRANCH  24  33
ATOM     25  O   UNL     1     111.039 126.969 137.772  0.00  0.00    +0.000 OA
ATOM     26  O   UNL     1     108.614 126.486 137.683  0.00  0.00    +0.000 OA
ATOM     27  O   UNL     1     109.304 126.987 139.094  0.00  0.00    +0.000 OA
ATOM     28  O   UNL     1     109.541 126.306 136.330  0.00  0.00    +0.000 OA
ATOM     29  C   UNL     1     109.422 126.647 137.713  0.00  0.00    +0.000 C 
ATOM     30  C   UNL     1     109.768 126.898 138.418  0.00  0.00    +0.000 C 
ATOM     31  C   UNL     1     109.886 126.557 137.035  0.00  0.00    +0.000 C 
ATOM     32  C   UNL     1     110.576 127.059 138.448  0.00  0.00    +0.000 C 
ATOM     33  C   UNL     1     110.695 126.718 137.065  0.00  0.00    +0.000 C 
BRANCH  32  35
ATOM     34  O   UNL     1     111.215 128.077 139.220  0.00  0.00    +0.000 OA
ATOM     35  C   UNL     1     110.921 127.309 139.153  0.00  0.00    +0.000 C 
ENDBRANCH  32  35
ENDBRANCH  24  33
ENDBRANCH   3  24
TORSDOF 6
ENDMDL
MODEL 3
REMARK VINA RESULT:      -8.6      2.003      5.279
REMARK  Name = 42608074
REMARK  6 active torsions:
REMARK  status: ('A' for Active; 'I' for Inactive)
REMARK    1  A    between atoms: O_2  and  C_15
REMARK    2  A    between atoms: O_2  and  C_17
REMARK    3  A    between atoms: O_8  and  C_25
REMARK    4  A    between atoms: O_10  and  C_33
REMARK    5  A    between atoms: C_14  and  C_16
REMARK    6  A    between atoms: C_20  and  C_26
REMARK                            x       y       z     vdW  Elec       q    Type
REMARK                         _______ _______ _______ _____ _____    ______ ____
ROOT
ATOM      1  O   UNL     1     113.120 128.884 138.233  0.00  0.00    +0.000 OA
ATOM      2  O   UNL     1     112.039 126.682 138.864  0.00  0.00    +0.000 OA
ATOM      3  C   UNL     1     112.160 127.138 137.255  0.00  0.00    +0.000 A 
ATOM      4  C   UNL     1     112.456 127.638 137.841  0.00  0.00    +0.000 A 
ATOM      5  C   UNL     1     112.808 128.354 137.633  0.00  0.00    +0.000 A 
ATOM      6  C   UNL     1     113.065 128.663 139.063  0.00  0.00    +0.000 C 
ATOM      7  C   UNL     1     112.216 127.355 136.462  0.00  0.00    +0.000 A 
ATOM      8  C   UNL     1     112.699 127.916 139.280  0.00  0.00    +0.000 C 
ATOM      9  C   UNL     1     112.392 127.400 138.665  0.00  0.00    +0.000 C 
ATOM     10  C   UNL     1     112.863 128.571 136.839  0.00  0.00    +0.000 A 
ATOM     11  C   UNL     1     112.568 128.071 136.253  0.00  0.00    +0.000 A 
ATOM     12  C   UNL     1     111.919 126.855 135.875  0.00  0.00    +0.000 C 
ATOM     13  C   UNL     1     113.215 129.287 136.630  0.00  0.00    +0.000 C 
ENDROOT
BRANCH   6  14
ATOM     14  C   UNL     1     113.362 129.165 139.646  0.00  0.00    +0.000 A 
ATOM     15  C   UNL     1     112.913 129.806 139.907  0.00  0.00    +0.000 A 
ATOM     16  C   UNL     1     114.109 129.026 139.970  0.00  0.00    +0.000 A 
ATOM     17  C   UNL     1     113.210 130.308 140.490  0.00  0.00    +0.000 A 
ATOM     18  C   UNL     1     114.405 129.528 140.554  0.00  0.00    +0.000 A 
ATOM     19  C   UNL     1     113.956 130.168 140.814  0.00  0.00    +0.000 A 
BRANCH  19  20
ATOM     20  O   UNL     1     114.252 130.671 141.397  0.00  0.00    +0.000 OA
ATOM     21  C   UNL     1     114.859 131.199 141.216  0.00  0.00    +0.000 C 
ENDBRANCH  19  20
ENDBRANCH   6  14
BRANCH  11  22
ATOM     22  O   UNL     1     112.623 128.288 135.459  0.00  0.00    +0.000 OA
ATOM     23  C   UNL     1     112.022 128.734 135.111  0.00  0.00    +0.000 C 
ENDBRANCH  11  22
BRANCH   3  24
ATOM     24  O   UNL     1     111.808 126.421 137.464  0.00  0.00    +0.000 OA
BRANCH  24  33
ATOM     25  O   UNL     1     113.030 125.703 137.280  0.00  0.00    +0.000 OA
ATOM     26  O   UNL     1     111.754 123.599 137.017  0.00  0.00    +0.000 OA
ATOM     27  O   UNL     1     113.400 123.582 136.921  0.00  0.00    +0.000 OA
ATOM     28  O   UNL     1     110.957 125.018 137.288  0.00  0.00    +0.000 OA
ATOM     29  C   UNL     1     112.179 124.300 137.104  0.00  0.00    +0.000 C 
ATOM     30  C   UNL     1     113.002 124.292 137.057  0.00  0.00    +0.000 C 
ATOM     31  C   UNL     1     111.781 125.011 137.240  0.00  0.00    +0.000 C 
ATOM     32  C   UNL     1     113.428 124.994 137.145  0.00  0.00    +0.000 C 
ATOM     33  C   UNL     1     112.206 125.712 137.328  0.00  0.00    +0.000 C 
BRANCH  32  35
ATOM     34  O   UNL     1     114.705 125.159 137.763  0.00  0.00    +0.000 OA
ATOM     35  C   UNL     1     114.251 124.985 137.097  0.00  0.00    +0.000 C 
ENDBRANCH  32  35
ENDBRANCH  24  33
ENDBRANCH   3  24
TORSDOF 6
ENDMDL
MODEL 4
REMARK VINA RESULT:      -8.6     12.342     13.751
REMARK  Name = 42608074
REMARK  6 active torsions:
REMARK  status: ('A' for Active; 'I' for Inactive)
REMARK    1  A    between atoms: O_2  and  C_15
REMARK    2  A    between atoms: O_2  and  C_17
REMARK    3  A    between atoms: O_8  and  C_25
REMARK    4  A    between atoms: O_10  and  C_33
REMARK    5  A    between atoms: C_14  and  C_16
REMARK    6  A    between atoms: C_20  and  C_26
REMARK                            x       y       z     vdW  Elec       q    Type
REMARK                         _______ _______ _______ _____ _____    ______ ____
ROOT
ATOM      1  O   UNL     1     106.982 126.569 147.021  0.00  0.00    +0.000 OA
ATOM      2  O   UNL     1     104.592 126.852 147.808  0.00  0.00    +0.000 OA
ATOM      3  C   UNL     1     105.538 125.602 148.402  0.00  0.00    +0.000 A 
ATOM      4  C   UNL     1     105.858 126.126 147.850  0.00  0.00    +0.000 A 
ATOM      5  C   UNL     1     106.637 126.031 147.595  0.00  0.00    +0.000 A 
ATOM      6  C   UNL     1     106.509 127.215 146.708  0.00  0.00    +0.000 C 
ATOM      7  C   UNL     1     105.997 124.985 148.699  0.00  0.00    +0.000 A 
ATOM      8  C   UNL     1     105.697 127.313 146.973  0.00  0.00    +0.000 C 
ATOM      9  C   UNL     1     105.369 126.765 147.548  0.00  0.00    +0.000 C 
ATOM     10  C   UNL     1     107.096 125.413 147.893  0.00  0.00    +0.000 A 
ATOM     11  C   UNL     1     106.776 124.890 148.445  0.00  0.00    +0.000 A 
ATOM     12  C   UNL     1     105.677 124.461 149.251  0.00  0.00    +0.000 C 
ATOM     13  C   UNL     1     107.875 125.319 147.639  0.00  0.00    +0.000 C 
ENDROOT
BRANCH   6  14
ATOM     14  C   UNL     1     106.832 127.737 146.156  0.00  0.00    +0.000 A 
ATOM     15  C   UNL     1     106.682 127.631 145.352  0.00  0.00    +0.000 A 
ATOM     16  C   UNL     1     107.305 128.364 146.409  0.00  0.00    +0.000 A 
ATOM     17  C   UNL     1     107.004 128.152 144.800  0.00  0.00    +0.000 A 
ATOM     18  C   UNL     1     107.627 128.885 145.856  0.00  0.00    +0.000 A 
ATOM     19  C   UNL     1     107.477 128.780 145.053  0.00  0.00    +0.000 A 
BRANCH  19  20
ATOM     20  O   UNL     1     107.799 129.301 144.500  0.00  0.00    +0.000 OA
ATOM     21  C   UNL     1     107.387 129.984 144.291  0.00  0.00    +0.000 C 
ENDBRANCH  19  20
ENDBRANCH   6  14
BRANCH  11  22
ATOM     22  O   UNL     1     107.235 124.272 148.742  0.00  0.00    +0.000 OA
ATOM     23  C   UNL     1     107.676 124.382 149.431  0.00  0.00    +0.000 C 
ENDBRANCH  11  22
BRANCH   3  24
ATOM     24  O   UNL     1     104.759 125.697 148.656  0.00  0.00    +0.000 OA
BRANCH  24  33
ATOM     25  O   UNL     1     104.250 124.805 147.663  0.00  0.00    +0.000 OA
ATOM     26  O   UNL     1     102.264 124.366 149.073  0.00  0.00    +0.000 OA
ATOM     27  O   UNL     1     102.418 123.621 147.609  0.00  0.00    +0.000 OA
ATOM     28  O   UNL     1     103.435 125.404 149.597  0.00  0.00    +0.000 OA
ATOM     29  C   UNL     1     102.926 124.512 148.603  0.00  0.00    +0.000 C 
ATOM     30  C   UNL     1     103.003 124.140 147.871  0.00  0.00    +0.000 C 
ATOM     31  C   UNL     1     103.512 125.032 148.865  0.00  0.00    +0.000 C 
ATOM     32  C   UNL     1     103.665 124.286 147.401  0.00  0.00    +0.000 C 
ATOM     33  C   UNL     1     104.174 125.178 148.395  0.00  0.00    +0.000 C 
BRANCH  32  35
ATOM     34  O   UNL     1     103.667 124.350 145.973  0.00  0.00    +0.000 OA
ATOM     35  C   UNL     1     103.742 123.914 146.669  0.00  0.00    +0.000 C 
ENDBRANCH  32  35
ENDBRANCH  24  33
ENDBRANCH   3  24
TORSDOF 6
ENDMDL
MODEL 5
REMARK VINA RESULT:      -8.6      1.969      5.382
REMARK  Name = 42608074
REMARK  6 active torsions:
REMARK  status: ('A' for Active; 'I' for Inactive)
REMARK    1  A    between atoms: O_2  and  C_15
REMARK    2  A    between atoms: O_2  and  C_17
REMARK    3  A    between atoms: O_8  and  C_25
REMARK    4  A    between atoms: O_10  and  C_33
REMARK    5  A    between atoms: C_14  and  C_16
REMARK    6  A    between atoms: C_20  and  C_26
REMARK                            x       y       z     vdW  Elec       q    Type
REMARK                         _______ _______ _______ _____ _____    ______ ____
ROOT
ATOM      1  O   UNL     1     113.514 128.850 137.474  0.00  0.00    +0.000 OA
ATOM      2  O   UNL     1     112.356 127.123 136.029  0.00  0.00    +0.000 OA
ATOM      3  C   UNL     1     112.301 127.004 137.700  0.00  0.00    +0.000 A 
ATOM      4  C   UNL     1     112.710 127.632 137.351  0.00  0.00    +0.000 A 
ATOM      5  C   UNL     1     113.086 128.193 137.824  0.00  0.00    +0.000 A 
ATOM      6  C   UNL     1     113.551 128.923 136.618  0.00  0.00    +0.000 C 
ATOM      7  C   UNL     1     112.270 126.940 138.522  0.00  0.00    +0.000 A 
ATOM      8  C   UNL     1     113.159 128.338 136.124  0.00  0.00    +0.000 C 
ATOM      9  C   UNL     1     112.735 127.688 136.494  0.00  0.00    +0.000 C 
ATOM     10  C   UNL     1     113.054 128.127 138.646  0.00  0.00    +0.000 A 
ATOM     11  C   UNL     1     112.647 127.501 138.995  0.00  0.00    +0.000 A 
ATOM     12  C   UNL     1     111.861 126.313 138.870  0.00  0.00    +0.000 C 
ATOM     13  C   UNL     1     113.431 128.688 139.119  0.00  0.00    +0.000 C 
ENDROOT
BRANCH   6  14
ATOM     14  C   UNL     1     113.960 129.551 136.272  0.00  0.00    +0.000 A 
ATOM     15  C   UNL     1     113.727 130.328 136.422  0.00  0.00    +0.000 A 
ATOM     16  C   UNL     1     114.602 129.401 135.776  0.00  0.00    +0.000 A 
ATOM     17  C   UNL     1     114.135 130.955 136.076  0.00  0.00    +0.000 A 
ATOM     18  C   UNL     1     115.011 130.030 135.430  0.00  0.00    +0.000 A 
ATOM     19  C   UNL     1     114.778 130.806 135.580  0.00  0.00    +0.000 A 
BRANCH  19  20
ATOM     20  O   UNL     1     115.185 131.434 135.234  0.00  0.00    +0.000 OA
ATOM     21  C   UNL     1     115.710 131.292 134.613  0.00  0.00    +0.000 C 
ENDBRANCH  19  20
ENDBRANCH   6  14
BRANCH  11  22
ATOM     22  O   UNL     1     112.615 127.435 139.817  0.00  0.00    +0.000 OA
ATOM     23  C   UNL     1     113.241 127.088 140.227  0.00  0.00    +0.000 C 
ENDBRANCH  11  22
BRANCH   3  24
ATOM     24  O   UNL     1     111.925 126.443 137.227  0.00  0.00    +0.000 OA
BRANCH  24  33
ATOM     25  O   UNL     1     113.059 125.575 137.257  0.00  0.00    +0.000 OA
ATOM     26  O   UNL     1     111.612 123.661 136.652  0.00  0.00    +0.000 OA
ATOM     27  O   UNL     1     113.228 123.432 136.884  0.00  0.00    +0.000 OA
ATOM     28  O   UNL     1     110.960 125.167 136.823  0.00  0.00    +0.000 OA
ATOM     29  C   UNL     1     112.094 124.299 136.854  0.00  0.00    +0.000 C 
ATOM     30  C   UNL     1     112.903 124.185 136.970  0.00  0.00    +0.000 C 
ATOM     31  C   UNL     1     111.768 125.053 136.939  0.00  0.00    +0.000 C 
ATOM     32  C   UNL     1     113.385 124.823 137.172  0.00  0.00    +0.000 C 
ATOM     33  C   UNL     1     112.251 125.691 137.141  0.00  0.00    +0.000 C 
BRANCH  32  35
ATOM     34  O   UNL     1     114.737 125.034 136.760  0.00  0.00    +0.000 OA
ATOM     35  C   UNL     1     114.193 124.708 137.288  0.00  0.00    +0.000 C 
ENDBRANCH  32  35
ENDBRANCH  24  33
ENDBRANCH   3  24
TORSDOF 6
ENDMDL
MODEL 6
REMARK VINA RESULT:      -8.5      1.375      2.811
REMARK  Name = 42608074
REMARK  6 active torsions:
REMARK  status: ('A' for Active; 'I' for Inactive)
REMARK    1  A    between atoms: O_2  and  C_15
REMARK    2  A    between atoms: O_2  and  C_17
REMARK    3  A    between atoms: O_8  and  C_25
REMARK    4  A    between atoms: O_10  and  C_33
REMARK    5  A    between atoms: C_14  and  C_16
REMARK    6  A    between atoms: C_20  and  C_26
REMARK                            x       y       z     vdW  Elec       q    Type
REMARK                         _______ _______ _______ _____ _____    ______ ____
ROOT
ATOM      1  O   UNL     1     111.602 126.729 135.951  0.00  0.00    +0.000 OA
ATOM      2  O   UNL     1     112.926 128.270 137.462  0.00  0.00    +0.000 OA
ATOM      3  C   UNL     1     111.928 128.901 136.273  0.00  0.00    +0.000 A 
ATOM      4  C   UNL     1     111.984 128.082 136.362  0.00  0.00    +0.000 A 
ATOM      5  C   UNL     1     111.551 127.583 135.868  0.00  0.00    +0.000 A 
ATOM      6  C   UNL     1     112.110 126.391 136.556  0.00  0.00    +0.000 C 
ATOM      7  C   UNL     1     111.438 129.219 135.690  0.00  0.00    +0.000 A 
ATOM      8  C   UNL     1     112.561 126.912 137.071  0.00  0.00    +0.000 C 
ATOM      9  C   UNL     1     112.497 127.764 136.973  0.00  0.00    +0.000 C 
ATOM     10  C   UNL     1     111.062 127.902 135.285  0.00  0.00    +0.000 A 
ATOM     11  C   UNL     1     111.006 128.720 135.196  0.00  0.00    +0.000 A 
ATOM     12  C   UNL     1     111.382 130.038 135.601  0.00  0.00    +0.000 C 
ATOM     13  C   UNL     1     110.630 127.403 134.791  0.00  0.00    +0.000 C 
ENDROOT
BRANCH   6  14
ATOM     14  C   UNL     1     112.164 125.572 136.643  0.00  0.00    +0.000 A 
ATOM     15  C   UNL     1     112.828 125.171 136.362  0.00  0.00    +0.000 A 
ATOM     16  C   UNL     1     111.555 125.155 137.011  0.00  0.00    +0.000 A 
ATOM     17  C   UNL     1     112.883 124.353 136.448  0.00  0.00    +0.000 A 
ATOM     18  C   UNL     1     111.611 124.336 137.098  0.00  0.00    +0.000 A 
ATOM     19  C   UNL     1     112.274 123.935 136.817  0.00  0.00    +0.000 A 
BRANCH  19  20
ATOM     20  O   UNL     1     112.330 123.117 136.903  0.00  0.00    +0.000 OA
ATOM     21  C   UNL     1     111.923 122.739 137.513  0.00  0.00    +0.000 C 
ENDBRANCH  19  20
ENDBRANCH   6  14
BRANCH  11  22
ATOM     22  O   UNL     1     110.516 129.039 134.613  0.00  0.00    +0.000 OA
ATOM     23  C   UNL     1     109.745 129.263 134.800  0.00  0.00    +0.000 C 
ENDBRANCH  11  22
BRANCH   3  24
ATOM     24  O   UNL     1     112.360 129.401 136.766  0.00  0.00    +0.000 OA
BRANCH  24  33
ATOM     25  O   UNL     1     113.436 129.489 135.830  0.00  0.00    +0.000 OA
ATOM     26  O   UNL     1     114.186 131.596 136.890  0.00  0.00    +0.000 OA
ATOM     27  O   UNL     1     115.012 130.981 135.601  0.00  0.00    +0.000 OA
ATOM     28  O   UNL     1     112.860 130.806 137.473  0.00  0.00    +0.000 OA
ATOM     29  C   UNL     1     113.936 130.894 136.536  0.00  0.00    +0.000 C 
ATOM     30  C   UNL     1     114.349 130.586 135.892  0.00  0.00    +0.000 C 
ATOM     31  C   UNL     1     113.273 130.498 136.828  0.00  0.00    +0.000 C 
ATOM     32  C   UNL     1     114.099 129.883 135.539  0.00  0.00    +0.000 C 
ATOM     33  C   UNL     1     113.023 129.795 136.475  0.00  0.00    +0.000 C 
BRANCH  32  35
ATOM     34  O   UNL     1     114.939 128.875 134.974  0.00  0.00    +0.000 OA
ATOM     35  C   UNL     1     114.512 129.576 134.895  0.00  0.00    +0.000 C 
ENDBRANCH  32  35
ENDBRANCH  24  33
ENDBRANCH   3  24
TORSDOF 6
ENDMDL
MODEL 7
REMARK VINA RESULT:      -8.5      1.060      1.788
REMARK  Name = 42608074
REMARK  6 active torsions:
REMARK  status: ('A' for Active; 'I' for Inactive)
REMARK    1  A    between atoms: O_2  and  C_15
REMARK    2  A    between atoms: O_2  and  C_17
REMARK    3  A    between atoms: O_8  and  C_25
REMARK    4  A    between atoms: O_10  and  C_33
REMARK    5  A    between atoms: C_14  and  C_16
REMARK    6  A    between atoms: C_20  and  C_26
REMARK                            x       y       z     vdW  Elec       q    Type
REMARK                         _______ _______ _______ _____ _____    ______ ____
ROOT
ATOM      1  O   UNL     1     112.978 126.880 136.285  0.00  0.00    +0.000 OA
ATOM      2  O   UNL     1     111.051 128.336 137.046  0.00  0.00    +0.000 OA
ATOM      3  C   UNL     1     112.476 129.031 136.503  0.00  0.00    +0.000 A 
ATOM      4  C   UNL     1     112.407 128.209 136.520  0.00  0.00    +0.000 A 
ATOM      5  C   UNL     1     113.037 127.737 136.272  0.00  0.00    +0.000 A 
ATOM      6  C   UNL     1     112.253 126.509 136.561  0.00  0.00    +0.000 C 
ATOM      7  C   UNL     1     113.174 129.381 136.238  0.00  0.00    +0.000 A 
ATOM      8  C   UNL     1     111.597 127.001 136.820  0.00  0.00    +0.000 C 
ATOM      9  C   UNL     1     111.675 127.857 136.799  0.00  0.00    +0.000 C 
ATOM     10  C   UNL     1     113.735 128.088 136.006  0.00  0.00    +0.000 A 
ATOM     11  C   UNL     1     113.804 128.909 135.989  0.00  0.00    +0.000 A 
ATOM     12  C   UNL     1     113.243 130.204 136.220  0.00  0.00    +0.000 C 
ATOM     13  C   UNL     1     114.365 127.616 135.758  0.00  0.00    +0.000 C 
ENDROOT
BRANCH   6  14
ATOM     14  C   UNL     1     112.187 125.687 136.577  0.00  0.00    +0.000 A 
ATOM     15  C   UNL     1     112.628 125.248 137.119  0.00  0.00    +0.000 A 
ATOM     16  C   UNL     1     111.680 125.303 136.051  0.00  0.00    +0.000 A 
ATOM     17  C   UNL     1     112.562 124.427 137.136  0.00  0.00    +0.000 A 
ATOM     18  C   UNL     1     111.614 124.481 136.068  0.00  0.00    +0.000 A 
ATOM     19  C   UNL     1     112.055 124.043 136.610  0.00  0.00    +0.000 A 
BRANCH  19  20
ATOM     20  O   UNL     1     111.990 123.221 136.627  0.00  0.00    +0.000 OA
ATOM     21  C   UNL     1     111.916 122.829 137.349  0.00  0.00    +0.000 C 
ENDBRANCH  19  20
ENDBRANCH   6  14
BRANCH  11  22
ATOM     22  O   UNL     1     114.502 129.260 135.723  0.00  0.00    +0.000 OA
ATOM     23  C   UNL     1     114.597 129.433 134.922  0.00  0.00    +0.000 C 
ENDBRANCH  11  22
BRANCH   3  24
ATOM     24  O   UNL     1     111.847 129.503 136.752  0.00  0.00    +0.000 OA
BRANCH  24  33
ATOM     25  O   UNL     1     112.363 129.592 138.081  0.00  0.00    +0.000 OA
ATOM     26  O   UNL     1     111.032 131.645 138.460  0.00  0.00    +0.000 OA
ATOM     27  O   UNL     1     111.992 131.050 139.662  0.00  0.00    +0.000 OA
ATOM     28  O   UNL     1     110.959 130.871 137.005  0.00  0.00    +0.000 OA
ATOM     29  C   UNL     1     111.476 130.961 138.334  0.00  0.00    +0.000 C 
ATOM     30  C   UNL     1     111.956 130.663 138.935  0.00  0.00    +0.000 C 
ATOM     31  C   UNL     1     111.440 130.573 137.605  0.00  0.00    +0.000 C 
ATOM     32  C   UNL     1     112.400 129.979 138.808  0.00  0.00    +0.000 C 
ATOM     33  C   UNL     1     111.883 129.889 137.479  0.00  0.00    +0.000 C 
BRANCH  32  35
ATOM     34  O   UNL     1     112.690 128.965 139.773  0.00  0.00    +0.000 OA
ATOM     35  C   UNL     1     112.879 129.682 139.410  0.00  0.00    +0.000 C 
ENDBRANCH  32  35
ENDBRANCH  24  33
ENDBRANCH   3  24
TORSDOF 6
ENDMDL
MODEL 8
REMARK VINA RESULT:      -8.5      1.781      2.706
REMARK  Name = 42608074
REMARK  6 active torsions:
REMARK  status: ('A' for Active; 'I' for Inactive)
REMARK    1  A    between atoms: O_2  and  C_15
REMARK    2  A    between atoms: O_2  and  C_17
REMARK    3  A    between atoms: O_8  and  C_25
REMARK    4  A    between atoms: O_10  and  C_33
REMARK    5  A    between atoms: C_14  and  C_16
REMARK    6  A    between atoms: C_20  and  C_26
REMARK                            x       y       z     vdW  Elec       q    Type
REMARK                         _______ _______ _______ _____ _____    ______ ____
ROOT
ATOM      1  O   UNL     1     111.820 127.103 136.271  0.00  0.00    +0.000 OA
ATOM      2  O   UNL     1     109.501 127.803 135.536  0.00  0.00    +0.000 OA
ATOM      3  C   UNL     1     110.760 128.910 135.537  0.00  0.00    +0.000 A 
ATOM      4  C   UNL     1     110.903 128.133 135.778  0.00  0.00    +0.000 A 
ATOM      5  C   UNL     1     111.659 127.908 136.017  0.00  0.00    +0.000 A 
ATOM      6  C   UNL     1     111.184 126.524 136.276  0.00  0.00    +0.000 C 
ATOM      7  C   UNL     1     111.375 129.460 135.534  0.00  0.00    +0.000 A 
ATOM      8  C   UNL     1     110.395 126.759 136.027  0.00  0.00    +0.000 C 
ATOM      9  C   UNL     1     110.254 127.570 135.776  0.00  0.00    +0.000 C 
ATOM     10  C   UNL     1     112.273 128.459 136.015  0.00  0.00    +0.000 A 
ATOM     11  C   UNL     1     112.131 129.234 135.773  0.00  0.00    +0.000 A 
ATOM     12  C   UNL     1     111.232 130.236 135.293  0.00  0.00    +0.000 C 
ATOM     13  C   UNL     1     113.030 128.233 136.253  0.00  0.00    +0.000 C 
ENDROOT
BRANCH   6  14
ATOM     14  C   UNL     1     111.330 125.749 136.518  0.00  0.00    +0.000 A 
ATOM     15  C   UNL     1     111.473 125.162 135.956  0.00  0.00    +0.000 A 
ATOM     16  C   UNL     1     111.331 125.561 137.321  0.00  0.00    +0.000 A 
ATOM     17  C   UNL     1     111.618 124.388 136.197  0.00  0.00    +0.000 A 
ATOM     18  C   UNL     1     111.476 124.785 137.562  0.00  0.00    +0.000 A 
ATOM     19  C   UNL     1     111.620 124.199 137.001  0.00  0.00    +0.000 A 
BRANCH  19  20
ATOM     20  O   UNL     1     111.765 123.423 137.242  0.00  0.00    +0.000 OA
ATOM     21  C   UNL     1     112.537 123.131 137.244  0.00  0.00    +0.000 C 
ENDBRANCH  19  20
ENDBRANCH   6  14
BRANCH  11  22
ATOM     22  O   UNL     1     112.746 129.785 135.771  0.00  0.00    +0.000 OA
ATOM     23  C   UNL     1     112.972 130.153 136.474  0.00  0.00    +0.000 C 
ENDBRANCH  11  22
BRANCH   3  24
ATOM     24  O   UNL     1     110.003 129.135 135.298  0.00  0.00    +0.000 OA
BRANCH  24  33
ATOM     25  O   UNL     1     109.655 129.602 136.603  0.00  0.00    +0.000 OA
ATOM     26  O   UNL     1     107.937 131.084 135.614  0.00  0.00    +0.000 OA
ATOM     27  O   UNL     1     108.161 131.056 137.247  0.00  0.00    +0.000 OA
ATOM     28  O   UNL     1     108.858 130.123 134.639  0.00  0.00    +0.000 OA
ATOM     29  C   UNL     1     108.509 130.590 135.943  0.00  0.00    +0.000 C 
ATOM     30  C   UNL     1     108.622 130.576 136.760  0.00  0.00    +0.000 C 
ATOM     31  C   UNL     1     108.970 130.109 135.456  0.00  0.00    +0.000 C 
ATOM     32  C   UNL     1     109.195 130.082 137.090  0.00  0.00    +0.000 C 
ATOM     33  C   UNL     1     109.543 129.615 135.785  0.00  0.00    +0.000 C 
BRANCH  32  35
ATOM     34  O   UNL     1     109.109 129.394 138.340  0.00  0.00    +0.000 OA
ATOM     35  C   UNL     1     109.306 130.068 137.907  0.00  0.00    +0.000 C 
ENDBRANCH  32  35
ENDBRANCH  24  33
ENDBRANCH   3  24
TORSDOF 6
ENDMDL
MODEL 9
REMARK VINA RESULT:      -8.5      1.479      5.398
REMARK  Name = 42608074
REMARK  6 active torsions:
REMARK  status: ('A' for Active; 'I' for Inactive)
REMARK    1  A    between atoms: O_2  and  C_15
REMARK    2  A    between atoms: O_2  and  C_17
REMARK    3  A    between atoms: O_8  and  C_25
REMARK    4  A    between atoms: O_10  and  C_33
REMARK    5  A    between atoms: C_14  and  C_16
REMARK    6  A    between atoms: C_20  and  C_26
REMARK                            x       y       z     vdW  Elec       q    Type
REMARK                         _______ _______ _______ _____ _____    ______ ____
ROOT
ATOM      1  O   UNL     1     112.432 129.125 138.268  0.00  0.00    +0.000 OA
ATOM      2  O   UNL     1     113.120 127.626 136.347  0.00  0.00    +0.000 OA
ATOM      3  C   UNL     1     113.318 127.118 137.932  0.00  0.00    +0.000 A 
ATOM      4  C   UNL     1     112.993 127.862 137.783  0.00  0.00    +0.000 A 
ATOM      5  C   UNL     1     112.770 128.349 138.411  0.00  0.00    +0.000 A 
ATOM      6  C   UNL     1     112.325 129.399 137.460  0.00  0.00    +0.000 C 
ATOM      7  C   UNL     1     113.418 126.861 138.710  0.00  0.00    +0.000 A 
ATOM      8  C   UNL     1     112.558 128.892 136.806  0.00  0.00    +0.000 C 
ATOM      9  C   UNL     1     112.894 128.118 136.968  0.00  0.00    +0.000 C 
ATOM     10  C   UNL     1     112.871 128.090 139.188  0.00  0.00    +0.000 A 
ATOM     11  C   UNL     1     113.194 127.347 139.337  0.00  0.00    +0.000 A 
ATOM     12  C   UNL     1     113.742 126.116 138.859  0.00  0.00    +0.000 C 
ATOM     13  C   UNL     1     112.647 128.577 139.816  0.00  0.00    +0.000 C 
ENDROOT
BRANCH   6  14
ATOM     14  C   UNL     1     112.001 130.144 137.314  0.00  0.00    +0.000 A 
ATOM     15  C   UNL     1     112.490 130.808 137.282  0.00  0.00    +0.000 A 
ATOM     16  C   UNL     1     111.188 130.224 137.198  0.00  0.00    +0.000 A 
ATOM     17  C   UNL     1     112.167 131.551 137.136  0.00  0.00    +0.000 A 
ATOM     18  C   UNL     1     110.864 130.970 137.051  0.00  0.00    +0.000 A 
ATOM     19  C   UNL     1     111.353 131.633 137.020  0.00  0.00    +0.000 A 
BRANCH  19  20
ATOM     20  O   UNL     1     111.030 132.377 136.874  0.00  0.00    +0.000 OA
ATOM     21  C   UNL     1     110.531 132.726 137.430  0.00  0.00    +0.000 C 
ENDBRANCH  19  20
ENDBRANCH   6  14
BRANCH  11  22
ATOM     22  O   UNL     1     113.295 127.089 140.115  0.00  0.00    +0.000 OA
ATOM     23  C   UNL     1     114.001 127.244 140.512  0.00  0.00    +0.000 C 
ENDBRANCH  11  22
BRANCH   3  24
ATOM     24  O   UNL     1     113.541 126.631 137.305  0.00  0.00    +0.000 OA
BRANCH  24  33
ATOM     25  O   UNL     1     112.294 125.934 137.307  0.00  0.00    +0.000 OA
ATOM     26  O   UNL     1     113.380 123.987 136.233  0.00  0.00    +0.000 OA
ATOM     27  O   UNL     1     111.772 123.939 136.593  0.00  0.00    +0.000 OA
ATOM     28  O   UNL     1     114.265 125.333 136.588  0.00  0.00    +0.000 OA
ATOM     29  C   UNL     1     113.018 124.636 136.591  0.00  0.00    +0.000 C 
ATOM     30  C   UNL     1     112.214 124.612 136.771  0.00  0.00    +0.000 C 
ATOM     31  C   UNL     1     113.461 125.310 136.769  0.00  0.00    +0.000 C 
ATOM     32  C   UNL     1     111.851 125.261 137.129  0.00  0.00    +0.000 C 
ATOM     33  C   UNL     1     113.099 125.959 137.127  0.00  0.00    +0.000 C 
BRANCH  32  35
ATOM     34  O   UNL     1     110.521 125.736 136.916  0.00  0.00    +0.000 OA
ATOM     35  C   UNL     1     111.047 125.237 137.309  0.00  0.00    +0.000 C 
ENDBRANCH  32  35
ENDBRANCH  24  33
ENDBRANCH   3  24
TORSDOF 6
ENDMDL
MODEL 10
REMARK VINA RESULT:      -8.4      2.096      3.093
REMARK  Name = 42608074
REMARK  6 active torsions:
REMARK  status: ('A' for Active; 'I' for Inactive)
REMARK    1  A    between atoms: O_2  and  C_15
REMARK    2  A    between atoms: O_2  and  C_17
REMARK    3  A    between atoms: O_8  and  C_25
REMARK    4  A    between atoms: O_10  and  C_33
REMARK    5  A    between atoms: C_14  and  C_16
REMARK    6  A    between atoms: C_20  and  C_26
REMARK                            x       y       z     vdW  Elec       q    Type
REMARK                         _______ _______ _______ _____ _____    ______ ____
ROOT
ATOM      1  O   UNL     1     110.581 127.399 136.015  0.00  0.00    +0.000 OA
ATOM      2  O   UNL     1     109.964 128.136 138.358  0.00  0.00    +0.000 OA
ATOM      3  C   UNL     1     109.446 129.015 137.028  0.00  0.00    +0.000 A 
ATOM      4  C   UNL     1     109.905 128.339 136.913  0.00  0.00    +0.000 A 
ATOM      5  C   UNL     1     110.104 128.101 136.149  0.00  0.00    +0.000 A 
ATOM      6  C   UNL     1     110.855 126.938 136.688  0.00  0.00    +0.000 C 
ATOM      7  C   UNL     1     109.187 129.453 136.379  0.00  0.00    +0.000 A 
ATOM      8  C   UNL     1     110.647 127.186 137.485  0.00  0.00    +0.000 C 
ATOM      9  C   UNL     1     110.168 127.892 137.598  0.00  0.00    +0.000 C 
ATOM     10  C   UNL     1     109.845 128.540 135.500  0.00  0.00    +0.000 A 
ATOM     11  C   UNL     1     109.386 129.215 135.615  0.00  0.00    +0.000 A 
ATOM     12  C   UNL     1     108.728 130.130 136.495  0.00  0.00    +0.000 C 
ATOM     13  C   UNL     1     110.044 128.302 134.735  0.00  0.00    +0.000 C 
ENDROOT
BRANCH   6  14
ATOM     14  C   UNL     1     111.313 126.263 136.570  0.00  0.00    +0.000 A 
ATOM     15  C   UNL     1     112.133 126.302 136.649  0.00  0.00    +0.000 A 
ATOM     16  C   UNL     1     110.952 125.548 136.372  0.00  0.00    +0.000 A 
ATOM     17  C   UNL     1     112.592 125.627 136.532  0.00  0.00    +0.000 A 
ATOM     18  C   UNL     1     111.411 124.873 136.254  0.00  0.00    +0.000 A 
ATOM     19  C   UNL     1     112.230 124.912 136.333  0.00  0.00    +0.000 A 
BRANCH  19  20
ATOM     20  O   UNL     1     112.690 124.237 136.216  0.00  0.00    +0.000 OA
ATOM     21  C   UNL     1     113.172 123.957 136.824  0.00  0.00    +0.000 C 
ENDBRANCH  19  20
ENDBRANCH   6  14
BRANCH  11  22
ATOM     22  O   UNL     1     109.127 129.654 134.966  0.00  0.00    +0.000 OA
ATOM     23  C   UNL     1     109.630 130.204 134.612  0.00  0.00    +0.000 C 
ENDBRANCH  11  22
BRANCH   3  24
ATOM     24  O   UNL     1     109.246 129.253 137.793  0.00  0.00    +0.000 OA
BRANCH  24  33
ATOM     25  O   UNL     1     110.357 130.148 137.876  0.00  0.00    +0.000 OA
ATOM     26  O   UNL     1     109.180 131.448 139.622  0.00  0.00    +0.000 OA
ATOM     27  O   UNL     1     110.683 131.909 139.123  0.00  0.00    +0.000 OA
ATOM     28  O   UNL     1     108.461 130.120 138.957  0.00  0.00    +0.000 OA
ATOM     29  C   UNL     1     109.572 131.015 139.040  0.00  0.00    +0.000 C 
ATOM     30  C   UNL     1     110.324 131.245 138.790  0.00  0.00    +0.000 C 
ATOM     31  C   UNL     1     109.213 130.350 138.707  0.00  0.00    +0.000 C 
ATOM     32  C   UNL     1     110.717 130.811 138.208  0.00  0.00    +0.000 C 
ATOM     33  C   UNL     1     109.605 129.917 138.125  0.00  0.00    +0.000 C 
BRANCH  32  35
ATOM     34  O   UNL     1     112.132 130.613 138.197  0.00  0.00    +0.000 OA
ATOM     35  C   UNL     1     111.468 131.042 137.959  0.00  0.00    +0.000 C 
ENDBRANCH  32  35
ENDBRANCH  24  33
ENDBRANCH   3  24
TORSDOF 6
ENDMDL
