MODEL 1
REMARK VINA RESULT:      -8.2      0.000      0.000
REMARK  Name = 11491431
REMARK  2 active torsions:
REMARK  status: ('A' for Active; 'I' for Inactive)
REMARK    1  A    between atoms: O_2  and  C_12
REMARK    2  A    between atoms: C_6  and  C_11
REMARK                            x       y       z     vdW  Elec       q    Type
REMARK                         _______ _______ _______ _____ _____    ______ ____
ROOT
ATOM      1  O   UNL     1     112.047 125.755 136.106  0.00  0.00    +0.000 OA
ATOM      2  O   UNL     1     111.963 123.328 136.822  0.00  0.00    +0.000 OA
ATOM      3  O   UNL     1     113.354 123.413 137.194  0.00  0.00    +0.000 OA
ATOM      4  O   UNL     1     114.823 125.844 136.873  0.00  0.00    +0.000 OA
ATOM      5  C   UNL     1     111.311 125.319 136.029  0.00  0.00    +0.000 C 
ATOM      6  C   UNL     1     111.280 124.495 136.271  0.00  0.00    +0.000 C 
ATOM      7  C   UNL     1     112.712 124.571 136.657  0.00  0.00    +0.000 A 
ATOM      8  C   UNL     1     112.742 125.362 136.425  0.00  0.00    +0.000 A 
ATOM      9  C   UNL     1     111.984 124.119 136.587  0.00  0.00    +0.000 C 
ATOM     10  C   UNL     1     113.445 125.786 136.496  0.00  0.00    +0.000 A 
ATOM     11  C   UNL     1     113.385 124.204 136.961  0.00  0.00    +0.000 A 
ATOM     12  C   UNL     1     114.118 125.420 136.801  0.00  0.00    +0.000 A 
ATOM     13  C   UNL     1     114.088 124.629 137.033  0.00  0.00    +0.000 A 
ENDROOT
BRANCH   5  14
ATOM     14  C   UNL     1     110.639 125.688 135.724  0.00  0.00    +0.000 A 
ATOM     15  C   UNL     1     110.469 125.635 134.918  0.00  0.00    +0.000 A 
ATOM     16  C   UNL     1     110.138 126.110 136.225  0.00  0.00    +0.000 A 
ATOM     17  C   UNL     1     109.797 126.004 134.614  0.00  0.00    +0.000 A 
ATOM     18  C   UNL     1     109.466 126.479 135.919  0.00  0.00    +0.000 A 
ATOM     19  C   UNL     1     109.295 126.426 135.114  0.00  0.00    +0.000 A 
ENDBRANCH   5  14
BRANCH  10  20
ATOM     20  O   UNL     1     113.476 126.577 136.264  0.00  0.00    +0.000 OA
ATOM     21  C   UNL     1     113.684 127.160 136.809  0.00  0.00    +0.000 C 
ENDBRANCH  10  20
TORSDOF 2
ENDMDL
MODEL 2
REMARK VINA RESULT:      -8.1     11.367     12.353
REMARK  Name = 11491431
REMARK  2 active torsions:
REMARK  status: ('A' for Active; 'I' for Inactive)
REMARK    1  A    between atoms: O_2  and  C_12
REMARK    2  A    between atoms: C_6  and  C_11
REMARK                            x       y       z     vdW  Elec       q    Type
REMARK                         _______ _______ _______ _____ _____    ______ ____
ROOT
ATOM      1  O   UNL     1     106.471 124.987 146.819  0.00  0.00    +0.000 OA
ATOM      2  O   UNL     1     107.315 127.314 146.286  0.00  0.00    +0.000 OA
ATOM      3  O   UNL     1     106.705 127.212 144.983  0.00  0.00    +0.000 OA
ATOM      4  O   UNL     1     105.282 124.862 144.198  0.00  0.00    +0.000 OA
ATOM      5  C   UNL     1     106.924 125.416 147.409  0.00  0.00    +0.000 C 
ATOM      6  C   UNL     1     107.211 126.206 147.232  0.00  0.00    +0.000 C 
ATOM      7  C   UNL     1     106.588 126.112 145.887  0.00  0.00    +0.000 A 
ATOM      8  C   UNL     1     106.312 125.353 146.058  0.00  0.00    +0.000 A 
ATOM      9  C   UNL     1     107.043 126.556 146.466  0.00  0.00    +0.000 C 
ATOM     10  C   UNL     1     105.876 124.937 145.495  0.00  0.00    +0.000 A 
ATOM     11  C   UNL     1     106.429 126.454 145.153  0.00  0.00    +0.000 A 
ATOM     12  C   UNL     1     105.717 125.278 144.761  0.00  0.00    +0.000 A 
ATOM     13  C   UNL     1     105.994 126.036 144.591  0.00  0.00    +0.000 A 
ENDROOT
BRANCH   5  14
ATOM     14  C   UNL     1     107.081 125.072 148.143  0.00  0.00    +0.000 A 
ATOM     15  C   UNL     1     107.834 124.778 148.307  0.00  0.00    +0.000 A 
ATOM     16  C   UNL     1     106.486 125.023 148.712  0.00  0.00    +0.000 A 
ATOM     17  C   UNL     1     107.992 124.434 149.040  0.00  0.00    +0.000 A 
ATOM     18  C   UNL     1     106.645 124.679 149.445  0.00  0.00    +0.000 A 
ATOM     19  C   UNL     1     107.398 124.384 149.609  0.00  0.00    +0.000 A 
ENDBRANCH   5  14
BRANCH  10  20
ATOM     20  O   UNL     1     105.600 124.179 145.666  0.00  0.00    +0.000 OA
ATOM     21  C   UNL     1     104.801 123.999 145.571  0.00  0.00    +0.000 C 
ENDBRANCH  10  20
TORSDOF 2
ENDMDL
MODEL 3
REMARK VINA RESULT:      -8.0     12.192     12.923
REMARK  Name = 11491431
REMARK  2 active torsions:
REMARK  status: ('A' for Active; 'I' for Inactive)
REMARK    1  A    between atoms: O_2  and  C_12
REMARK    2  A    between atoms: C_6  and  C_11
REMARK                            x       y       z     vdW  Elec       q    Type
REMARK                         _______ _______ _______ _____ _____    ______ ____
ROOT
ATOM      1  O   UNL     1     105.186 124.383 147.431  0.00  0.00    +0.000 OA
ATOM      2  O   UNL     1     106.432 125.448 145.501  0.00  0.00    +0.000 OA
ATOM      3  O   UNL     1     107.570 125.633 146.367  0.00  0.00    +0.000 OA
ATOM      4  O   UNL     1     107.502 124.789 149.096  0.00  0.00    +0.000 OA
ATOM      5  C   UNL     1     104.796 124.459 146.669  0.00  0.00    +0.000 C 
ATOM      6  C   UNL     1     105.216 124.820 146.013  0.00  0.00    +0.000 C 
ATOM      7  C   UNL     1     106.395 125.016 146.895  0.00  0.00    +0.000 A 
ATOM      8  C   UNL     1     105.991 124.669 147.526  0.00  0.00    +0.000 A 
ATOM      9  C   UNL     1     106.020 125.100 146.126  0.00  0.00    +0.000 C 
ATOM     10  C   UNL     1     106.360 124.594 148.259  0.00  0.00    +0.000 A 
ATOM     11  C   UNL     1     107.167 125.286 146.998  0.00  0.00    +0.000 A 
ATOM     12  C   UNL     1     107.132 124.864 148.363  0.00  0.00    +0.000 A 
ATOM     13  C   UNL     1     107.535 125.210 147.732  0.00  0.00    +0.000 A 
ENDROOT
BRANCH   5  14
ATOM     14  C   UNL     1     104.024 124.188 146.569  0.00  0.00    +0.000 A 
ATOM     15  C   UNL     1     103.390 124.635 146.850  0.00  0.00    +0.000 A 
ATOM     16  C   UNL     1     103.885 123.469 146.188  0.00  0.00    +0.000 A 
ATOM     17  C   UNL     1     102.617 124.363 146.750  0.00  0.00    +0.000 A 
ATOM     18  C   UNL     1     103.112 123.199 146.088  0.00  0.00    +0.000 A 
ATOM     19  C   UNL     1     102.478 123.645 146.369  0.00  0.00    +0.000 A 
ENDBRANCH   5  14
BRANCH  10  20
ATOM     20  O   UNL     1     105.957 124.247 148.890  0.00  0.00    +0.000 OA
ATOM     21  C   UNL     1     105.900 124.643 149.612  0.00  0.00    +0.000 C 
ENDBRANCH  10  20
TORSDOF 2
ENDMDL
MODEL 4
REMARK VINA RESULT:      -8.0      1.499      3.649
REMARK  Name = 11491431
REMARK  2 active torsions:
REMARK  status: ('A' for Active; 'I' for Inactive)
REMARK    1  A    between atoms: O_2  and  C_12
REMARK    2  A    between atoms: C_6  and  C_11
REMARK                            x       y       z     vdW  Elec       q    Type
REMARK                         _______ _______ _______ _____ _____    ______ ____
ROOT
ATOM      1  O   UNL     1     112.413 126.449 136.155  0.00  0.00    +0.000 OA
ATOM      2  O   UNL     1     110.746 124.595 135.713  0.00  0.00    +0.000 OA
ATOM      3  O   UNL     1     109.901 125.547 135.035  0.00  0.00    +0.000 OA
ATOM      4  O   UNL     1     110.670 128.288 134.784  0.00  0.00    +0.000 OA
ATOM      5  C   UNL     1     112.582 125.655 136.436  0.00  0.00    +0.000 C 
ATOM      6  C   UNL     1     112.019 125.024 136.288  0.00  0.00    +0.000 C 
ATOM      7  C   UNL     1     111.141 125.995 135.586  0.00  0.00    +0.000 A 
ATOM      8  C   UNL     1     111.682 126.602 135.729  0.00  0.00    +0.000 A 
ATOM      9  C   UNL     1     111.293 125.195 135.860  0.00  0.00    +0.000 C 
ATOM     10  C   UNL     1     111.525 127.365 135.461  0.00  0.00    +0.000 A 
ATOM     11  C   UNL     1     110.443 126.153 135.177  0.00  0.00    +0.000 A 
ATOM     12  C   UNL     1     110.828 127.524 135.052  0.00  0.00    +0.000 A 
ATOM     13  C   UNL     1     110.286 126.918 134.909  0.00  0.00    +0.000 A 
ENDROOT
BRANCH   5  14
ATOM     14  C   UNL     1     113.281 125.500 136.845  0.00  0.00    +0.000 A 
ATOM     15  C   UNL     1     113.330 125.659 137.653  0.00  0.00    +0.000 A 
ATOM     16  C   UNL     1     113.931 125.184 136.447  0.00  0.00    +0.000 A 
ATOM     17  C   UNL     1     114.029 125.504 138.063  0.00  0.00    +0.000 A 
ATOM     18  C   UNL     1     114.631 125.029 136.857  0.00  0.00    +0.000 A 
ATOM     19  C   UNL     1     114.679 125.189 137.665  0.00  0.00    +0.000 A 
ENDBRANCH   5  14
BRANCH  10  20
ATOM     20  O   UNL     1     112.066 127.971 135.603  0.00  0.00    +0.000 OA
ATOM     21  C   UNL     1     111.819 128.670 135.967  0.00  0.00    +0.000 C 
ENDBRANCH  10  20
TORSDOF 2
ENDMDL
MODEL 5
REMARK VINA RESULT:      -8.0     12.818     13.900
REMARK  Name = 11491431
REMARK  2 active torsions:
REMARK  status: ('A' for Active; 'I' for Inactive)
REMARK    1  A    between atoms: O_2  and  C_12
REMARK    2  A    between atoms: C_6  and  C_11
REMARK                            x       y       z     vdW  Elec       q    Type
REMARK                         _______ _______ _______ _____ _____    ______ ____
ROOT
ATOM      1  O   UNL     1     105.398 124.468 147.412  0.00  0.00    +0.000 OA
ATOM      2  O   UNL     1     103.890 125.817 148.934  0.00  0.00    +0.000 OA
ATOM      3  O   UNL     1     102.763 125.437 148.118  0.00  0.00    +0.000 OA
ATOM      4  O   UNL     1     103.096 123.754 145.832  0.00  0.00    +0.000 OA
ATOM      5  C   UNL     1     105.739 124.884 148.082  0.00  0.00    +0.000 C 
ATOM      6  C   UNL     1     105.230 125.342 148.601  0.00  0.00    +0.000 C 
ATOM      7  C   UNL     1     104.062 124.957 147.767  0.00  0.00    +0.000 A 
ATOM      8  C   UNL     1     104.551 124.517 147.269  0.00  0.00    +0.000 A 
ATOM      9  C   UNL     1     104.386 125.379 148.442  0.00  0.00    +0.000 C 
ATOM     10  C   UNL     1     104.229 124.116 146.625  0.00  0.00    +0.000 A 
ATOM     11  C   UNL     1     103.252 124.997 147.620  0.00  0.00    +0.000 A 
ATOM     12  C   UNL     1     103.419 124.155 146.477  0.00  0.00    +0.000 A 
ATOM     13  C   UNL     1     102.930 124.596 146.975  0.00  0.00    +0.000 A 
ENDROOT
BRANCH   5  14
ATOM     14  C   UNL     1     106.550 124.842 148.227  0.00  0.00    +0.000 A 
ATOM     15  C   UNL     1     106.831 124.424 148.880  0.00  0.00    +0.000 A 
ATOM     16  C   UNL     1     107.079 125.220 147.719  0.00  0.00    +0.000 A 
ATOM     17  C   UNL     1     107.642 124.383 149.025  0.00  0.00    +0.000 A 
ATOM     18  C   UNL     1     107.891 125.178 147.865  0.00  0.00    +0.000 A 
ATOM     19  C   UNL     1     108.172 124.760 148.518  0.00  0.00    +0.000 A 
ENDBRANCH   5  14
BRANCH  10  20
ATOM     20  O   UNL     1     104.718 123.676 146.127  0.00  0.00    +0.000 OA
ATOM     21  C   UNL     1     104.691 123.794 145.311  0.00  0.00    +0.000 C 
ENDBRANCH  10  20
TORSDOF 2
ENDMDL
MODEL 6
REMARK VINA RESULT:      -7.9     10.241     11.909
REMARK  Name = 11491431
REMARK  2 active torsions:
REMARK  status: ('A' for Active; 'I' for Inactive)
REMARK    1  A    between atoms: O_2  and  C_12
REMARK    2  A    between atoms: C_6  and  C_11
REMARK                            x       y       z     vdW  Elec       q    Type
REMARK                         _______ _______ _______ _____ _____    ______ ____
ROOT
ATOM      1  O   UNL     1     102.878 130.494 142.148  0.00  0.00    +0.000 OA
ATOM      2  O   UNL     1     102.702 129.334 139.904  0.00  0.00    +0.000 OA
ATOM      3  O   UNL     1     103.659 128.357 140.360  0.00  0.00    +0.000 OA
ATOM      4  O   UNL     1     104.785 128.502 142.983  0.00  0.00    +0.000 OA
ATOM      5  C   UNL     1     102.353 130.814 141.549  0.00  0.00    +0.000 C 
ATOM      6  C   UNL     1     102.291 130.423 140.786  0.00  0.00    +0.000 C 
ATOM      7  C   UNL     1     103.276 129.411 141.245  0.00  0.00    +0.000 A 
ATOM      8  C   UNL     1     103.335 129.787 141.977  0.00  0.00    +0.000 A 
ATOM      9  C   UNL     1     102.755 129.717 140.633  0.00  0.00    +0.000 C 
ATOM     10  C   UNL     1     103.838 129.484 142.556  0.00  0.00    +0.000 A 
ATOM     11  C   UNL     1     103.719 128.732 141.092  0.00  0.00    +0.000 A 
ATOM     12  C   UNL     1     104.282 128.806 142.403  0.00  0.00    +0.000 A 
ATOM     13  C   UNL     1     104.222 128.430 141.671  0.00  0.00    +0.000 A 
ENDROOT
BRANCH   5  14
ATOM     14  C   UNL     1     101.910 131.493 141.704  0.00  0.00    +0.000 A 
ATOM     15  C   UNL     1     101.153 131.427 142.024  0.00  0.00    +0.000 A 
ATOM     16  C   UNL     1     102.225 132.238 141.539  0.00  0.00    +0.000 A 
ATOM     17  C   UNL     1     100.710 132.106 142.179  0.00  0.00    +0.000 A 
ATOM     18  C   UNL     1     101.782 132.916 141.695  0.00  0.00    +0.000 A 
ATOM     19  C   UNL     1     101.024 132.850 142.015  0.00  0.00    +0.000 A 
ENDBRANCH   5  14
BRANCH  10  20
ATOM     20  O   UNL     1     103.898 129.860 143.288  0.00  0.00    +0.000 OA
ATOM     21  C   UNL     1     104.637 130.076 143.582  0.00  0.00    +0.000 C 
ENDBRANCH  10  20
TORSDOF 2
ENDMDL
MODEL 7
REMARK VINA RESULT:      -7.7      2.981      4.197
REMARK  Name = 11491431
REMARK  2 active torsions:
REMARK  status: ('A' for Active; 'I' for Inactive)
REMARK    1  A    between atoms: O_2  and  C_12
REMARK    2  A    between atoms: C_6  and  C_11
REMARK                            x       y       z     vdW  Elec       q    Type
REMARK                         _______ _______ _______ _____ _____    ______ ____
ROOT
ATOM      1  O   UNL     1     113.643 126.383 138.902  0.00  0.00    +0.000 OA
ATOM      2  O   UNL     1     111.218 125.652 138.877  0.00  0.00    +0.000 OA
ATOM      3  O   UNL     1     111.034 126.298 140.153  0.00  0.00    +0.000 OA
ATOM      4  O   UNL     1     113.193 127.647 141.451  0.00  0.00    +0.000 OA
ATOM      5  C   UNL     1     113.346 125.930 138.235  0.00  0.00    +0.000 C 
ATOM      6  C   UNL     1     112.524 125.681 138.223  0.00  0.00    +0.000 C 
ATOM      7  C   UNL     1     112.323 126.342 139.538  0.00  0.00    +0.000 A 
ATOM      8  C   UNL     1     113.113 126.581 139.549  0.00  0.00    +0.000 A 
ATOM      9  C   UNL     1     112.009 125.887 138.879  0.00  0.00    +0.000 C 
ATOM     10  C   UNL     1     113.402 127.016 140.186  0.00  0.00    +0.000 A 
ATOM     11  C   UNL     1     111.824 126.537 140.164  0.00  0.00    +0.000 A 
ATOM     12  C   UNL     1     112.904 127.212 140.813  0.00  0.00    +0.000 A 
ATOM     13  C   UNL     1     112.114 126.972 140.802  0.00  0.00    +0.000 A 
ENDROOT
BRANCH   5  14
ATOM     14  C   UNL     1     113.848 125.735 137.609  0.00  0.00    +0.000 A 
ATOM     15  C   UNL     1     113.884 126.221 136.943  0.00  0.00    +0.000 A 
ATOM     16  C   UNL     1     114.313 125.055 137.650  0.00  0.00    +0.000 A 
ATOM     17  C   UNL     1     114.385 126.026 136.318  0.00  0.00    +0.000 A 
ATOM     18  C   UNL     1     114.815 124.861 137.023  0.00  0.00    +0.000 A 
ATOM     19  C   UNL     1     114.851 125.347 136.357  0.00  0.00    +0.000 A 
ENDBRANCH   5  14
BRANCH  10  20
ATOM     20  O   UNL     1     114.192 127.255 140.197  0.00  0.00    +0.000 OA
ATOM     21  C   UNL     1     114.645 127.152 140.879  0.00  0.00    +0.000 C 
ENDBRANCH  10  20
TORSDOF 2
ENDMDL
MODEL 8
REMARK VINA RESULT:      -7.7      1.630      3.929
REMARK  Name = 11491431
REMARK  2 active torsions:
REMARK  status: ('A' for Active; 'I' for Inactive)
REMARK    1  A    between atoms: O_2  and  C_12
REMARK    2  A    between atoms: C_6  and  C_11
REMARK                            x       y       z     vdW  Elec       q    Type
REMARK                         _______ _______ _______ _____ _____    ______ ____
ROOT
ATOM      1  O   UNL     1     111.019 125.736 136.916  0.00  0.00    +0.000 OA
ATOM      2  O   UNL     1     109.972 125.569 134.616  0.00  0.00    +0.000 OA
ATOM      3  O   UNL     1     108.982 126.537 135.021  0.00  0.00    +0.000 OA
ATOM      4  O   UNL     1     109.006 127.664 137.647  0.00  0.00    +0.000 OA
ATOM      5  C   UNL     1     111.363 125.207 136.334  0.00  0.00    +0.000 C 
ATOM      6  C   UNL     1     111.010 125.148 135.553  0.00  0.00    +0.000 C 
ATOM      7  C   UNL     1     109.986 126.144 135.959  0.00  0.00    +0.000 A 
ATOM      8  C   UNL     1     110.325 126.200 136.709  0.00  0.00    +0.000 A 
ATOM      9  C   UNL     1     110.318 125.619 135.364  0.00  0.00    +0.000 C 
ATOM     10  C   UNL     1     109.999 126.707 137.271  0.00  0.00    +0.000 A 
ATOM     11  C   UNL     1     109.321 126.594 135.771  0.00  0.00    +0.000 A 
ATOM     12  C   UNL     1     109.334 127.157 137.084  0.00  0.00    +0.000 A 
ATOM     13  C   UNL     1     108.995 127.100 136.334  0.00  0.00    +0.000 A 
ENDROOT
BRANCH   5  14
ATOM     14  C   UNL     1     112.029 124.758 136.523  0.00  0.00    +0.000 A 
ATOM     15  C   UNL     1     111.939 123.994 136.823  0.00  0.00    +0.000 A 
ATOM     16  C   UNL     1     112.784 125.072 136.414  0.00  0.00    +0.000 A 
ATOM     17  C   UNL     1     112.605 123.545 137.013  0.00  0.00    +0.000 A 
ATOM     18  C   UNL     1     113.449 124.622 136.604  0.00  0.00    +0.000 A 
ATOM     19  C   UNL     1     113.360 123.859 136.903  0.00  0.00    +0.000 A 
ENDBRANCH   5  14
BRANCH  10  20
ATOM     20  O   UNL     1     110.337 126.764 138.021  0.00  0.00    +0.000 OA
ATOM     21  C   UNL     1     109.881 126.618 138.692  0.00  0.00    +0.000 C 
ENDBRANCH  10  20
TORSDOF 2
ENDMDL
MODEL 9
REMARK VINA RESULT:      -7.6      1.041      3.205
REMARK  Name = 11491431
REMARK  2 active torsions:
REMARK  status: ('A' for Active; 'I' for Inactive)
REMARK    1  A    between atoms: O_2  and  C_12
REMARK    2  A    between atoms: C_6  and  C_11
REMARK                            x       y       z     vdW  Elec       q    Type
REMARK                         _______ _______ _______ _____ _____    ______ ____
ROOT
ATOM      1  O   UNL     1     112.729 126.467 136.417  0.00  0.00    +0.000 OA
ATOM      2  O   UNL     1     114.736 125.157 137.233  0.00  0.00    +0.000 OA
ATOM      3  O   UNL     1     113.957 123.947 137.138  0.00  0.00    +0.000 OA
ATOM      4  O   UNL     1     111.240 124.006 136.256  0.00  0.00    +0.000 OA
ATOM      5  C   UNL     1     113.458 126.884 136.598  0.00  0.00    +0.000 C 
ATOM      6  C   UNL     1     114.141 126.442 136.875  0.00  0.00    +0.000 C 
ATOM      7  C   UNL     1     113.348 125.190 136.781  0.00  0.00    +0.000 A 
ATOM      8  C   UNL     1     112.692 125.614 136.515  0.00  0.00    +0.000 A 
ATOM      9  C   UNL     1     114.086 125.590 136.967  0.00  0.00    +0.000 C 
ATOM     10  C   UNL     1     111.990 125.220 136.340  0.00  0.00    +0.000 A 
ATOM     11  C   UNL     1     113.301 124.372 136.872  0.00  0.00    +0.000 A 
ATOM     12  C   UNL     1     111.942 124.402 136.431  0.00  0.00    +0.000 A 
ATOM     13  C   UNL     1     112.598 123.978 136.697  0.00  0.00    +0.000 A 
ENDROOT
BRANCH   5  14
ATOM     14  C   UNL     1     113.503 127.702 136.506  0.00  0.00    +0.000 A 
ATOM     15  C   UNL     1     113.210 128.200 137.095  0.00  0.00    +0.000 A 
ATOM     16  C   UNL     1     113.840 128.023 135.825  0.00  0.00    +0.000 A 
ATOM     17  C   UNL     1     113.255 129.018 137.004  0.00  0.00    +0.000 A 
ATOM     18  C   UNL     1     113.884 128.843 135.734  0.00  0.00    +0.000 A 
ATOM     19  C   UNL     1     113.592 129.340 136.323  0.00  0.00    +0.000 A 
ENDBRANCH   5  14
BRANCH  10  20
ATOM     20  O   UNL     1     111.334 125.644 136.074  0.00  0.00    +0.000 OA
ATOM     21  C   UNL     1     110.936 125.404 135.392  0.00  0.00    +0.000 C 
ENDBRANCH  10  20
TORSDOF 2
ENDMDL
MODEL 10
REMARK VINA RESULT:      -7.6     11.920     12.769
REMARK  Name = 11491431
REMARK  2 active torsions:
REMARK  status: ('A' for Active; 'I' for Inactive)
REMARK    1  A    between atoms: O_2  and  C_12
REMARK    2  A    between atoms: C_6  and  C_11
REMARK                            x       y       z     vdW  Elec       q    Type
REMARK                         _______ _______ _______ _____ _____    ______ ____
ROOT
ATOM      1  O   UNL     1     104.230 124.449 145.924  0.00  0.00    +0.000 OA
ATOM      2  O   UNL     1     105.160 124.545 148.277  0.00  0.00    +0.000 OA
ATOM      3  O   UNL     1     106.377 125.111 147.748  0.00  0.00    +0.000 OA
ATOM      4  O   UNL     1     106.692 125.582 144.947  0.00  0.00    +0.000 OA
ATOM      5  C   UNL     1     103.749 124.171 146.579  0.00  0.00    +0.000 C 
ATOM      6  C   UNL     1     104.061 124.202 147.378  0.00  0.00    +0.000 C 
ATOM      7  C   UNL     1     105.319 124.785 146.845  0.00  0.00    +0.000 A 
ATOM      8  C   UNL     1     105.019 124.755 146.077  0.00  0.00    +0.000 A 
ATOM      9  C   UNL     1     104.851 124.511 147.512  0.00  0.00    +0.000 C 
ATOM     10  C   UNL     1     105.476 125.020 145.445  0.00  0.00    +0.000 A 
ATOM     11  C   UNL     1     106.077 125.081 146.981  0.00  0.00    +0.000 A 
ATOM     12  C   UNL     1     106.234 125.316 145.580  0.00  0.00    +0.000 A 
ATOM     13  C   UNL     1     106.534 125.346 146.347  0.00  0.00    +0.000 A 
ENDROOT
BRANCH   5  14
ATOM     14  C   UNL     1     102.991 123.875 146.441  0.00  0.00    +0.000 A 
ATOM     15  C   UNL     1     102.330 124.336 146.618  0.00  0.00    +0.000 A 
ATOM     16  C   UNL     1     102.894 123.119 146.126  0.00  0.00    +0.000 A 
ATOM     17  C   UNL     1     101.572 124.041 146.480  0.00  0.00    +0.000 A 
ATOM     18  C   UNL     1     102.135 122.824 145.989  0.00  0.00    +0.000 A 
ATOM     19  C   UNL     1     101.474 123.285 146.165  0.00  0.00    +0.000 A 
ENDBRANCH   5  14
BRANCH  10  20
ATOM     20  O   UNL     1     105.176 124.990 144.677  0.00  0.00    +0.000 OA
ATOM     21  C   UNL     1     105.612 124.630 144.077  0.00  0.00    +0.000 C 
ENDBRANCH  10  20
TORSDOF 2
ENDMDL
