MODEL 1
REMARK VINA RESULT:     -10.2      0.000      0.000
REMARK  Name = 5835713
REMARK  3 active torsions:
REMARK  status: ('A' for Active; 'I' for Inactive)
REMARK    1  A    between atoms: O_2  and  C_15
REMARK    2  A    between atoms: O_2  and  C_17
REMARK    3  A    between atoms: C_18  and  C_22
REMARK                            x       y       z     vdW  Elec       q    Type
REMARK                         _______ _______ _______ _____ _____    ______ ____
ROOT
ATOM      1  O   UNL     1     105.615 124.436 147.733  0.00  0.00    +0.000 OA
ATOM      2  O   UNL     1     107.041 125.574 146.061  0.00  0.00    +0.000 OA
ATOM      3  O   UNL     1     108.164 125.557 146.965  0.00  0.00    +0.000 OA
ATOM      4  O   UNL     1     107.839 124.364 149.611  0.00  0.00    +0.000 OA
ATOM      5  C   UNL     1     105.779 125.020 146.439  0.00  0.00    +0.000 A 
ATOM      6  C   UNL     1     105.304 124.641 146.997  0.00  0.00    +0.000 A 
ATOM      7  C   UNL     1     106.566 125.195 146.618  0.00  0.00    +0.000 A 
ATOM      8  C   UNL     1     106.876 124.990 147.355  0.00  0.00    +0.000 A 
ATOM      9  C   UNL     1     106.400 124.610 147.912  0.00  0.00    +0.000 A 
ATOM     10  C   UNL     1     107.696 125.177 147.529  0.00  0.00    +0.000 A 
ATOM     11  C   UNL     1     106.712 124.392 148.682  0.00  0.00    +0.000 A 
ATOM     12  C   UNL     1     108.026 124.966 148.294  0.00  0.00    +0.000 A 
ATOM     13  C   UNL     1     107.531 124.571 148.874  0.00  0.00    +0.000 A 
ENDROOT
BRANCH   6  15
ATOM     14  O   UNL     1     102.159 123.943 146.280  0.00  0.00    +0.000 OA
ATOM     15  C   UNL     1     104.517 124.466 146.817  0.00  0.00    +0.000 A 
ATOM     16  C   UNL     1     103.908 124.903 147.163  0.00  0.00    +0.000 A 
ATOM     17  C   UNL     1     104.340 123.855 146.292  0.00  0.00    +0.000 A 
ATOM     18  C   UNL     1     103.123 124.729 146.984  0.00  0.00    +0.000 A 
ATOM     19  C   UNL     1     103.553 123.681 146.113  0.00  0.00    +0.000 A 
ATOM     20  C   UNL     1     102.945 124.117 146.459  0.00  0.00    +0.000 A 
ENDBRANCH   6  15
BRANCH   5  21
ATOM     21  O   UNL     1     105.468 125.226 145.703  0.00  0.00    +0.000 OA
BRANCH  21  30
ATOM     22  O   UNL     1     105.370 126.619 146.005  0.00  0.00    +0.000 OA
ATOM     23  O   UNL     1     105.723 127.162 143.616  0.00  0.00    +0.000 OA
ATOM     24  O   UNL     1     105.507 128.374 144.715  0.00  0.00    +0.000 OA
ATOM     25  O   UNL     1     105.703 125.588 144.110  0.00  0.00    +0.000 OA
ATOM     26  C   UNL     1     105.605 126.981 144.413  0.00  0.00    +0.000 C 
ATOM     27  C   UNL     1     105.497 127.586 144.962  0.00  0.00    +0.000 C 
ATOM     28  C   UNL     1     105.595 126.194 144.660  0.00  0.00    +0.000 C 
ATOM     29  C   UNL     1     105.380 127.405 145.759  0.00  0.00    +0.000 C 
ATOM     30  C   UNL     1     105.478 126.013 145.456  0.00  0.00    +0.000 C 
ATOM     31  C   UNL     1     105.272 128.012 146.307  0.00  0.00    +0.000 C 
ENDBRANCH  21  30
ENDBRANCH   5  21
TORSDOF 3
ENDMDL
MODEL 2
REMARK VINA RESULT:     -10.0      1.524      4.055
REMARK  Name = 5835713
REMARK  3 active torsions:
REMARK  status: ('A' for Active; 'I' for Inactive)
REMARK    1  A    between atoms: O_2  and  C_15
REMARK    2  A    between atoms: O_2  and  C_17
REMARK    3  A    between atoms: C_18  and  C_22
REMARK                            x       y       z     vdW  Elec       q    Type
REMARK                         _______ _______ _______ _____ _____    ______ ____
ROOT
ATOM      1  O   UNL     1     103.740 125.753 147.327  0.00  0.00    +0.000 OA
ATOM      2  O   UNL     1     105.679 124.465 146.487  0.00  0.00    +0.000 OA
ATOM      3  O   UNL     1     104.819 123.379 146.084  0.00  0.00    +0.000 OA
ATOM      4  O   UNL     1     101.943 123.601 146.539  0.00  0.00    +0.000 OA
ATOM      5  C   UNL     1     105.147 125.639 147.103  0.00  0.00    +0.000 A 
ATOM      6  C   UNL     1     104.500 126.068 147.382  0.00  0.00    +0.000 A 
ATOM      7  C   UNL     1     105.032 124.894 146.767  0.00  0.00    +0.000 A 
ATOM      8  C   UNL     1     104.272 124.578 146.712  0.00  0.00    +0.000 A 
ATOM      9  C   UNL     1     103.626 125.008 146.992  0.00  0.00    +0.000 A 
ATOM     10  C   UNL     1     104.166 123.801 146.361  0.00  0.00    +0.000 A 
ATOM     11  C   UNL     1     102.830 124.690 146.941  0.00  0.00    +0.000 A 
ATOM     12  C   UNL     1     103.377 123.467 146.301  0.00  0.00    +0.000 A 
ATOM     13  C   UNL     1     102.704 123.914 146.592  0.00  0.00    +0.000 A 
ENDROOT
BRANCH   6  15
ATOM     14  O   UNL     1     104.956 129.049 148.724  0.00  0.00    +0.000 OA
ATOM     15  C   UNL     1     104.614 126.814 147.718  0.00  0.00    +0.000 A 
ATOM     16  C   UNL     1     104.792 127.460 147.237  0.00  0.00    +0.000 A 
ATOM     17  C   UNL     1     104.551 126.912 148.534  0.00  0.00    +0.000 A 
ATOM     18  C   UNL     1     104.906 128.205 147.572  0.00  0.00    +0.000 A 
ATOM     19  C   UNL     1     104.665 127.658 148.870  0.00  0.00    +0.000 A 
ATOM     20  C   UNL     1     104.842 128.304 148.388  0.00  0.00    +0.000 A 
ENDBRANCH   6  15
BRANCH   5  21
ATOM     21  O   UNL     1     105.907 125.955 147.158  0.00  0.00    +0.000 OA
BRANCH  21  30
ATOM     22  O   UNL     1     106.275 125.136 148.269  0.00  0.00    +0.000 OA
ATOM     23  O   UNL     1     108.644 125.237 147.559  0.00  0.00    +0.000 OA
ATOM     24  O   UNL     1     108.222 124.384 148.908  0.00  0.00    +0.000 OA
ATOM     25  O   UNL     1     107.486 126.022 146.684  0.00  0.00    +0.000 OA
ATOM     26  C   UNL     1     107.854 125.203 147.796  0.00  0.00    +0.000 C 
ATOM     27  C   UNL     1     107.643 124.777 148.470  0.00  0.00    +0.000 C 
ATOM     28  C   UNL     1     107.275 125.595 147.359  0.00  0.00    +0.000 C 
ATOM     29  C   UNL     1     106.853 124.744 148.707  0.00  0.00    +0.000 C 
ATOM     30  C   UNL     1     106.485 125.562 147.596  0.00  0.00    +0.000 C 
ATOM     31  C   UNL     1     106.643 124.317 149.381  0.00  0.00    +0.000 C 
ENDBRANCH  21  30
ENDBRANCH   5  21
TORSDOF 3
ENDMDL
MODEL 3
REMARK VINA RESULT:      -9.6     11.687     12.776
REMARK  Name = 5835713
REMARK  3 active torsions:
REMARK  status: ('A' for Active; 'I' for Inactive)
REMARK    1  A    between atoms: O_2  and  C_15
REMARK    2  A    between atoms: O_2  and  C_17
REMARK    3  A    between atoms: C_18  and  C_22
REMARK                            x       y       z     vdW  Elec       q    Type
REMARK                         _______ _______ _______ _____ _____    ______ ____
ROOT
ATOM      1  O   UNL     1     111.928 125.614 136.083  0.00  0.00    +0.000 OA
ATOM      2  O   UNL     1     111.401 127.934 136.766  0.00  0.00    +0.000 OA
ATOM      3  O   UNL     1     110.150 127.891 136.049  0.00  0.00    +0.000 OA
ATOM      4  O   UNL     1     109.419 125.456 134.613  0.00  0.00    +0.000 OA
ATOM      5  C   UNL     1     112.282 126.809 136.784  0.00  0.00    +0.000 A 
ATOM      6  C   UNL     1     112.457 126.035 136.556  0.00  0.00    +0.000 A 
ATOM      7  C   UNL     1     111.576 127.161 136.538  0.00  0.00    +0.000 A 
ATOM      8  C   UNL     1     111.048 126.740 136.065  0.00  0.00    +0.000 A 
ATOM      9  C   UNL     1     111.224 125.966 135.838  0.00  0.00    +0.000 A 
ATOM     10  C   UNL     1     110.318 127.117 135.816  0.00  0.00    +0.000 A 
ATOM     11  C   UNL     1     110.682 125.518 135.346  0.00  0.00    +0.000 A 
ATOM     12  C   UNL     1     109.763 126.684 135.324  0.00  0.00    +0.000 A 
ATOM     13  C   UNL     1     109.946 125.879 135.086  0.00  0.00    +0.000 A 
ENDROOT
BRANCH   6  15
ATOM     14  O   UNL     1     115.275 124.627 137.539  0.00  0.00    +0.000 OA
ATOM     15  C   UNL     1     113.162 125.683 136.802  0.00  0.00    +0.000 A 
ATOM     16  C   UNL     1     113.779 125.576 136.265  0.00  0.00    +0.000 A 
ATOM     17  C   UNL     1     113.249 125.438 137.585  0.00  0.00    +0.000 A 
ATOM     18  C   UNL     1     114.483 125.224 136.511  0.00  0.00    +0.000 A 
ATOM     19  C   UNL     1     113.954 125.086 137.831  0.00  0.00    +0.000 A 
ATOM     20  C   UNL     1     114.571 124.979 137.294  0.00  0.00    +0.000 A 
ENDBRANCH   6  15
BRANCH   5  21
ATOM     21  O   UNL     1     112.810 127.230 137.257  0.00  0.00    +0.000 OA
BRANCH  21  30
ATOM     22  O   UNL     1     113.298 128.056 136.198  0.00  0.00    +0.000 OA
ATOM     23  O   UNL     1     113.657 129.904 137.805  0.00  0.00    +0.000 OA
ATOM     24  O   UNL     1     114.025 130.114 136.210  0.00  0.00    +0.000 OA
ATOM     25  O   UNL     1     113.050 128.462 138.328  0.00  0.00    +0.000 OA
ATOM     26  C   UNL     1     113.537 129.288 137.269  0.00  0.00    +0.000 C 
ATOM     27  C   UNL     1     113.721 129.392 136.472  0.00  0.00    +0.000 C 
ATOM     28  C   UNL     1     113.234 128.567 137.530  0.00  0.00    +0.000 C 
ATOM     29  C   UNL     1     113.601 128.776 135.936  0.00  0.00    +0.000 C 
ATOM     30  C   UNL     1     113.114 127.951 136.995  0.00  0.00    +0.000 C 
ATOM     31  C   UNL     1     113.785 128.882 135.139  0.00  0.00    +0.000 C 
ENDBRANCH  21  30
ENDBRANCH   5  21
TORSDOF 3
ENDMDL
MODEL 4
REMARK VINA RESULT:      -9.4      9.667     11.557
REMARK  Name = 5835713
REMARK  3 active torsions:
REMARK  status: ('A' for Active; 'I' for Inactive)
REMARK    1  A    between atoms: O_2  and  C_15
REMARK    2  A    between atoms: O_2  and  C_17
REMARK    3  A    between atoms: C_18  and  C_22
REMARK                            x       y       z     vdW  Elec       q    Type
REMARK                         _______ _______ _______ _____ _____    ______ ____
ROOT
ATOM      1  O   UNL     1     112.895 126.074 138.615  0.00  0.00    +0.000 OA
ATOM      2  O   UNL     1     110.594 125.667 137.800  0.00  0.00    +0.000 OA
ATOM      3  O   UNL     1     110.039 126.122 139.052  0.00  0.00    +0.000 OA
ATOM      4  O   UNL     1     111.847 127.005 141.168  0.00  0.00    +0.000 OA
ATOM      5  C   UNL     1     112.006 125.642 137.583  0.00  0.00    +0.000 A 
ATOM      6  C   UNL     1     112.772 125.778 137.855  0.00  0.00    +0.000 A 
ATOM      7  C   UNL     1     111.360 125.802 138.072  0.00  0.00    +0.000 A 
ATOM      8  C   UNL     1     111.482 126.098 138.833  0.00  0.00    +0.000 A 
ATOM      9  C   UNL     1     112.250 126.233 139.104  0.00  0.00    +0.000 A 
ATOM     10  C   UNL     1     110.803 126.260 139.332  0.00  0.00    +0.000 A 
ATOM     11  C   UNL     1     112.390 126.541 139.894  0.00  0.00    +0.000 A 
ATOM     12  C   UNL     1     110.923 126.568 140.125  0.00  0.00    +0.000 A 
ATOM     13  C   UNL     1     111.722 126.710 140.408  0.00  0.00    +0.000 A 
ENDROOT
BRANCH   6  15
ATOM     14  O   UNL     1     115.352 125.139 135.899  0.00  0.00    +0.000 OA
ATOM     15  C   UNL     1     113.418 125.618 137.366  0.00  0.00    +0.000 A 
ATOM     16  C   UNL     1     113.658 124.839 137.241  0.00  0.00    +0.000 A 
ATOM     17  C   UNL     1     113.822 126.238 137.002  0.00  0.00    +0.000 A 
ATOM     18  C   UNL     1     114.302 124.679 136.752  0.00  0.00    +0.000 A 
ATOM     19  C   UNL     1     114.468 126.078 136.512  0.00  0.00    +0.000 A 
ATOM     20  C   UNL     1     114.708 125.299 136.387  0.00  0.00    +0.000 A 
ENDBRANCH   6  15
BRANCH   5  21
ATOM     21  O   UNL     1     111.884 125.347 136.822  0.00  0.00    +0.000 OA
BRANCH  21  30
ATOM     22  O   UNL     1     111.470 126.603 136.282  0.00  0.00    +0.000 OA
ATOM     23  O   UNL     1     110.040 125.427 134.640  0.00  0.00    +0.000 OA
ATOM     24  O   UNL     1     110.103 127.075 134.647  0.00  0.00    +0.000 OA
ATOM     25  O   UNL     1     110.930 124.562 135.728  0.00  0.00    +0.000 OA
ATOM     26  C   UNL     1     110.517 125.819 135.187  0.00  0.00    +0.000 C 
ATOM     27  C   UNL     1     110.549 126.643 135.191  0.00  0.00    +0.000 C 
ATOM     28  C   UNL     1     110.962 125.387 135.731  0.00  0.00    +0.000 C 
ATOM     29  C   UNL     1     111.026 127.035 135.738  0.00  0.00    +0.000 C 
ATOM     30  C   UNL     1     111.439 125.780 136.278  0.00  0.00    +0.000 C 
ATOM     31  C   UNL     1     111.057 127.860 135.741  0.00  0.00    +0.000 C 
ENDBRANCH  21  30
ENDBRANCH   5  21
TORSDOF 3
ENDMDL
MODEL 5
REMARK VINA RESULT:      -9.4      1.041      3.507
REMARK  Name = 5835713
REMARK  3 active torsions:
REMARK  status: ('A' for Active; 'I' for Inactive)
REMARK    1  A    between atoms: O_2  and  C_15
REMARK    2  A    between atoms: O_2  and  C_17
REMARK    3  A    between atoms: C_18  and  C_22
REMARK                            x       y       z     vdW  Elec       q    Type
REMARK                         _______ _______ _______ _____ _____    ______ ____
ROOT
ATOM      1  O   UNL     1     104.076 124.575 148.258  0.00  0.00    +0.000 OA
ATOM      2  O   UNL     1     104.058 124.329 145.795  0.00  0.00    +0.000 OA
ATOM      3  O   UNL     1     102.628 124.143 145.796  0.00  0.00    +0.000 OA
ATOM      4  O   UNL     1     101.188 124.206 148.336  0.00  0.00    +0.000 OA
ATOM      5  C   UNL     1     104.776 124.544 147.012  0.00  0.00    +0.000 A 
ATOM      6  C   UNL     1     104.782 124.626 147.833  0.00  0.00    +0.000 A 
ATOM      7  C   UNL     1     104.064 124.411 146.616  0.00  0.00    +0.000 A 
ATOM      8  C   UNL     1     103.358 124.361 147.041  0.00  0.00    +0.000 A 
ATOM      9  C   UNL     1     103.365 124.443 147.862  0.00  0.00    +0.000 A 
ATOM     10  C   UNL     1     102.624 124.223 146.617  0.00  0.00    +0.000 A 
ATOM     11  C   UNL     1     102.637 124.393 148.315  0.00  0.00    +0.000 A 
ATOM     12  C   UNL     1     101.886 124.170 147.054  0.00  0.00    +0.000 A 
ATOM     13  C   UNL     1     101.892 124.255 147.909  0.00  0.00    +0.000 A 
ENDROOT
BRANCH   6  15
ATOM     14  O   UNL     1     107.628 125.155 149.416  0.00  0.00    +0.000 OA
ATOM     15  C   UNL     1     105.494 124.758 148.229  0.00  0.00    +0.000 A 
ATOM     16  C   UNL     1     106.041 124.146 148.309  0.00  0.00    +0.000 A 
ATOM     17  C   UNL     1     105.657 125.502 148.544  0.00  0.00    +0.000 A 
ATOM     18  C   UNL     1     106.752 124.278 148.705  0.00  0.00    +0.000 A 
ATOM     19  C   UNL     1     106.370 125.634 148.941  0.00  0.00    +0.000 A 
ATOM     20  C   UNL     1     106.917 125.022 149.021  0.00  0.00    +0.000 A 
ENDBRANCH   6  15
BRANCH   5  21
ATOM     21  O   UNL     1     105.481 124.594 146.587  0.00  0.00    +0.000 OA
BRANCH  21  30
ATOM     22  O   UNL     1     105.253 125.925 146.120  0.00  0.00    +0.000 OA
ATOM     23  O   UNL     1     106.487 125.406 144.038  0.00  0.00    +0.000 OA
ATOM     24  O   UNL     1     105.847 126.910 144.265  0.00  0.00    +0.000 OA
ATOM     25  O   UNL     1     106.304 124.248 145.199  0.00  0.00    +0.000 OA
ATOM     26  C   UNL     1     106.076 125.579 144.732  0.00  0.00    +0.000 C 
ATOM     27  C   UNL     1     105.755 126.330 144.846  0.00  0.00    +0.000 C 
ATOM     28  C   UNL     1     105.984 125.000 145.313  0.00  0.00    +0.000 C 
ATOM     29  C   UNL     1     105.344 126.503 145.540  0.00  0.00    +0.000 C 
ATOM     30  C   UNL     1     105.572 125.173 146.007  0.00  0.00    +0.000 C 
ATOM     31  C   UNL     1     105.024 127.256 145.652  0.00  0.00    +0.000 C 
ENDBRANCH  21  30
ENDBRANCH   5  21
TORSDOF 3
ENDMDL
MODEL 6
REMARK VINA RESULT:      -9.4     10.711     12.933
REMARK  Name = 5835713
REMARK  3 active torsions:
REMARK  status: ('A' for Active; 'I' for Inactive)
REMARK    1  A    between atoms: O_2  and  C_15
REMARK    2  A    between atoms: O_2  and  C_17
REMARK    3  A    between atoms: C_18  and  C_22
REMARK                            x       y       z     vdW  Elec       q    Type
REMARK                         _______ _______ _______ _____ _____    ______ ____
ROOT
ATOM      1  O   UNL     1     114.121 127.519 136.114  0.00  0.00    +0.000 OA
ATOM      2  O   UNL     1     111.841 128.353 136.591  0.00  0.00    +0.000 OA
ATOM      3  O   UNL     1     112.126 129.600 135.924  0.00  0.00    +0.000 OA
ATOM      4  O   UNL     1     114.769 130.010 134.750  0.00  0.00    +0.000 OA
ATOM      5  C   UNL     1     112.827 127.323 136.686  0.00  0.00    +0.000 A 
ATOM      6  C   UNL     1     113.587 127.045 136.527  0.00  0.00    +0.000 A 
ATOM      7  C   UNL     1     112.601 128.075 136.432  0.00  0.00    +0.000 A 
ATOM      8  C   UNL     1     113.135 128.549 136.019  0.00  0.00    +0.000 A 
ATOM      9  C   UNL     1     113.896 128.270 135.860  0.00  0.00    +0.000 A 
ATOM     10  C   UNL     1     112.889 129.329 135.760  0.00  0.00    +0.000 A 
ATOM     11  C   UNL     1     114.461 128.754 135.431  0.00  0.00    +0.000 A 
ATOM     12  C   UNL     1     113.440 129.828 135.329  0.00  0.00    +0.000 A 
ATOM     13  C   UNL     1     114.232 129.538 135.163  0.00  0.00    +0.000 A 
ENDROOT
BRANCH   6  15
ATOM     14  O   UNL     1     114.489 124.038 137.543  0.00  0.00    +0.000 OA
ATOM     15  C   UNL     1     113.812 126.293 136.781  0.00  0.00    +0.000 A 
ATOM     16  C   UNL     1     113.884 125.677 136.236  0.00  0.00    +0.000 A 
ATOM     17  C   UNL     1     113.966 126.157 137.580  0.00  0.00    +0.000 A 
ATOM     18  C   UNL     1     114.110 124.926 136.490  0.00  0.00    +0.000 A 
ATOM     19  C   UNL     1     114.192 125.404 137.834  0.00  0.00    +0.000 A 
ATOM     20  C   UNL     1     114.263 124.789 137.289  0.00  0.00    +0.000 A 
ENDBRANCH   6  15
BRANCH   5  21
ATOM     21  O   UNL     1     112.292 126.849 137.099  0.00  0.00    +0.000 OA
BRANCH  21  30
ATOM     22  O   UNL     1     111.517 126.519 135.945  0.00  0.00    +0.000 OA
ATOM     23  O   UNL     1     109.496 126.316 137.359  0.00  0.00    +0.000 OA
ATOM     24  O   UNL     1     109.395 126.054 135.734  0.00  0.00    +0.000 OA
ATOM     25  O   UNL     1     110.945 126.714 138.042  0.00  0.00    +0.000 OA
ATOM     26  C   UNL     1     110.170 126.384 136.888  0.00  0.00    +0.000 C 
ATOM     27  C   UNL     1     110.120 126.253 136.075  0.00  0.00    +0.000 C 
ATOM     28  C   UNL     1     110.894 126.583 137.229  0.00  0.00    +0.000 C 
ATOM     29  C   UNL     1     110.793 126.321 135.604  0.00  0.00    +0.000 C 
ATOM     30  C   UNL     1     111.568 126.650 136.757  0.00  0.00    +0.000 C 
ATOM     31  C   UNL     1     110.742 126.190 134.790  0.00  0.00    +0.000 C 
ENDBRANCH  21  30
ENDBRANCH   5  21
TORSDOF 3
ENDMDL
MODEL 7
REMARK VINA RESULT:      -9.3      9.926     12.007
REMARK  Name = 5835713
REMARK  3 active torsions:
REMARK  status: ('A' for Active; 'I' for Inactive)
REMARK    1  A    between atoms: O_2  and  C_15
REMARK    2  A    between atoms: O_2  and  C_17
REMARK    3  A    between atoms: C_18  and  C_22
REMARK                            x       y       z     vdW  Elec       q    Type
REMARK                         _______ _______ _______ _____ _____    ______ ____
ROOT
ATOM      1  O   UNL     1     113.560 127.220 136.515  0.00  0.00    +0.000 OA
ATOM      2  O   UNL     1     112.285 128.264 138.362  0.00  0.00    +0.000 OA
ATOM      3  O   UNL     1     112.596 129.584 137.869  0.00  0.00    +0.000 OA
ATOM      4  O   UNL     1     114.229 129.851 135.462  0.00  0.00    +0.000 OA
ATOM      5  C   UNL     1     112.761 127.094 137.694  0.00  0.00    +0.000 A 
ATOM      6  C   UNL     1     113.186 126.746 137.078  0.00  0.00    +0.000 A 
ATOM      7  C   UNL     1     112.710 127.916 137.746  0.00  0.00    +0.000 A 
ATOM      8  C   UNL     1     113.084 128.390 137.184  0.00  0.00    +0.000 A 
ATOM      9  C   UNL     1     113.509 128.041 136.568  0.00  0.00    +0.000 A 
ATOM     10  C   UNL     1     113.024 129.244 137.250  0.00  0.00    +0.000 A 
ATOM     11  C   UNL     1     113.903 128.523 135.977  0.00  0.00    +0.000 A 
ATOM     12  C   UNL     1     113.411 129.743 136.667  0.00  0.00    +0.000 A 
ATOM     13  C   UNL     1     113.854 129.380 136.026  0.00  0.00    +0.000 A 
ENDROOT
BRANCH   6  15
ATOM     14  O   UNL     1     113.388 123.459 136.866  0.00  0.00    +0.000 OA
ATOM     15  C   UNL     1     113.236 125.924 137.025  0.00  0.00    +0.000 A 
ATOM     16  C   UNL     1     113.937 125.540 137.232  0.00  0.00    +0.000 A 
ATOM     17  C   UNL     1     112.587 125.487 136.765  0.00  0.00    +0.000 A 
ATOM     18  C   UNL     1     113.987 124.719 137.179  0.00  0.00    +0.000 A 
ATOM     19  C   UNL     1     112.638 124.665 136.712  0.00  0.00    +0.000 A 
ATOM     20  C   UNL     1     113.338 124.280 136.919  0.00  0.00    +0.000 A 
ENDBRANCH   6  15
BRANCH   5  21
ATOM     21  O   UNL     1     112.387 126.620 138.256  0.00  0.00    +0.000 OA
BRANCH  21  30
ATOM     22  O   UNL     1     113.359 126.892 139.267  0.00  0.00    +0.000 OA
ATOM     23  O   UNL     1     111.655 126.487 141.015  0.00  0.00    +0.000 OA
ATOM     24  O   UNL     1     113.195 126.894 141.444  0.00  0.00    +0.000 OA
ATOM     25  O   UNL     1     111.250 126.350 139.422  0.00  0.00    +0.000 OA
ATOM     26  C   UNL     1     112.223 126.622 140.433  0.00  0.00    +0.000 C 
ATOM     27  C   UNL     1     112.993 126.826 140.646  0.00  0.00    +0.000 C 
ATOM     28  C   UNL     1     112.021 126.554 139.636  0.00  0.00    +0.000 C 
ATOM     29  C   UNL     1     113.561 126.961 140.063  0.00  0.00    +0.000 C 
ATOM     30  C   UNL     1     112.589 126.689 139.053  0.00  0.00    +0.000 C 
ATOM     31  C   UNL     1     114.332 127.164 140.278  0.00  0.00    +0.000 C 
ENDBRANCH  21  30
ENDBRANCH   5  21
TORSDOF 3
ENDMDL
MODEL 8
REMARK VINA RESULT:      -9.3     10.153     12.262
REMARK  Name = 5835713
REMARK  3 active torsions:
REMARK  status: ('A' for Active; 'I' for Inactive)
REMARK    1  A    between atoms: O_2  and  C_15
REMARK    2  A    between atoms: O_2  and  C_17
REMARK    3  A    between atoms: C_18  and  C_22
REMARK                            x       y       z     vdW  Elec       q    Type
REMARK                         _______ _______ _______ _____ _____    ______ ____
ROOT
ATOM      1  O   UNL     1     113.529 126.804 136.777  0.00  0.00    +0.000 OA
ATOM      2  O   UNL     1     111.590 125.472 136.008  0.00  0.00    +0.000 OA
ATOM      3  O   UNL     1     112.268 124.242 136.338  0.00  0.00    +0.000 OA
ATOM      4  O   UNL     1     114.958 124.362 137.468  0.00  0.00    +0.000 OA
ATOM      5  C   UNL     1     112.212 126.740 136.225  0.00  0.00    +0.000 A 
ATOM      6  C   UNL     1     112.858 127.183 136.481  0.00  0.00    +0.000 A 
ATOM      7  C   UNL     1     112.236 125.915 136.264  0.00  0.00    +0.000 A 
ATOM      8  C   UNL     1     112.906 125.536 136.560  0.00  0.00    +0.000 A 
ATOM      9  C   UNL     1     113.552 125.981 136.817  0.00  0.00    +0.000 A 
ATOM     10  C   UNL     1     112.919 124.678 136.597  0.00  0.00    +0.000 A 
ATOM     11  C   UNL     1     114.256 125.597 137.127  0.00  0.00    +0.000 A 
ATOM     12  C   UNL     1     113.614 124.277 136.904  0.00  0.00    +0.000 A 
ATOM     13  C   UNL     1     114.287 124.739 137.171  0.00  0.00    +0.000 A 
ENDROOT
BRANCH   6  15
ATOM     14  O   UNL     1     112.762 130.478 136.321  0.00  0.00    +0.000 OA
ATOM     15  C   UNL     1     112.834 128.008 136.441  0.00  0.00    +0.000 A 
ATOM     16  C   UNL     1     112.735 128.451 137.130  0.00  0.00    +0.000 A 
ATOM     17  C   UNL     1     112.910 128.387 135.713  0.00  0.00    +0.000 A 
ATOM     18  C   UNL     1     112.711 129.274 137.090  0.00  0.00    +0.000 A 
ATOM     19  C   UNL     1     112.886 129.211 135.673  0.00  0.00    +0.000 A 
ATOM     20  C   UNL     1     112.786 129.655 136.361  0.00  0.00    +0.000 A 
ENDBRANCH   6  15
BRANCH   5  21
ATOM     21  O   UNL     1     111.542 127.119 135.928  0.00  0.00    +0.000 OA
BRANCH  21  30
ATOM     22  O   UNL     1     110.765 126.887 137.105  0.00  0.00    +0.000 OA
ATOM     23  O   UNL     1     108.699 126.891 135.742  0.00  0.00    +0.000 OA
ATOM     24  O   UNL     1     108.611 126.657 137.373  0.00  0.00    +0.000 OA
ATOM     25  O   UNL     1     110.165 127.122 135.020  0.00  0.00    +0.000 OA
ATOM     26  C   UNL     1     109.388 126.890 136.197  0.00  0.00    +0.000 C 
ATOM     27  C   UNL     1     109.345 126.773 137.012  0.00  0.00    +0.000 C 
ATOM     28  C   UNL     1     110.121 127.005 135.836  0.00  0.00    +0.000 C 
ATOM     29  C   UNL     1     110.033 126.771 137.466  0.00  0.00    +0.000 C 
ATOM     30  C   UNL     1     110.809 127.004 136.290  0.00  0.00    +0.000 C 
ATOM     31  C   UNL     1     109.988 126.655 138.282  0.00  0.00    +0.000 C 
ENDBRANCH  21  30
ENDBRANCH   5  21
TORSDOF 3
ENDMDL
MODEL 9
REMARK VINA RESULT:      -9.2      9.040     10.958
REMARK  Name = 5835713
REMARK  3 active torsions:
REMARK  status: ('A' for Active; 'I' for Inactive)
REMARK    1  A    between atoms: O_2  and  C_15
REMARK    2  A    between atoms: O_2  and  C_17
REMARK    3  A    between atoms: C_18  and  C_22
REMARK                            x       y       z     vdW  Elec       q    Type
REMARK                         _______ _______ _______ _____ _____    ______ ____
ROOT
ATOM      1  O   UNL     1     113.789 126.209 138.368  0.00  0.00    +0.000 OA
ATOM      2  O   UNL     1     111.709 124.956 137.889  0.00  0.00    +0.000 OA
ATOM      3  O   UNL     1     112.337 124.281 136.780  0.00  0.00    +0.000 OA
ATOM      4  O   UNL     1     115.123 124.885 136.143  0.00  0.00    +0.000 OA
ATOM      5  C   UNL     1     112.426 125.910 138.676  0.00  0.00    +0.000 A 
ATOM      6  C   UNL     1     113.119 126.327 138.835  0.00  0.00    +0.000 A 
ATOM      7  C   UNL     1     112.402 125.373 138.048  0.00  0.00    +0.000 A 
ATOM      8  C   UNL     1     113.072 125.255 137.581  0.00  0.00    +0.000 A 
ATOM      9  C   UNL     1     113.765 125.673 137.742  0.00  0.00    +0.000 A 
ATOM     10  C   UNL     1     113.035 124.694 136.932  0.00  0.00    +0.000 A 
ATOM     11  C   UNL     1     114.469 125.559 137.263  0.00  0.00    +0.000 A 
ATOM     12  C   UNL     1     113.729 124.566 136.442  0.00  0.00    +0.000 A 
ATOM     13  C   UNL     1     114.451 125.001 136.608  0.00  0.00    +0.000 A 
ENDROOT
BRANCH   6  15
ATOM     14  O   UNL     1     113.212 128.471 141.342  0.00  0.00    +0.000 OA
ATOM     15  C   UNL     1     113.142 126.864 139.462  0.00  0.00    +0.000 A 
ATOM     16  C   UNL     1     113.137 127.675 139.311  0.00  0.00    +0.000 A 
ATOM     17  C   UNL     1     113.171 126.588 140.239  0.00  0.00    +0.000 A 
ATOM     18  C   UNL     1     113.160 128.211 139.938  0.00  0.00    +0.000 A 
ATOM     19  C   UNL     1     113.194 127.125 140.866  0.00  0.00    +0.000 A 
ATOM     20  C   UNL     1     113.189 127.936 140.715  0.00  0.00    +0.000 A 
ENDBRANCH   6  15
BRANCH   5  21
ATOM     21  O   UNL     1     111.756 126.028 139.142  0.00  0.00    +0.000 OA
BRANCH  21  30
ATOM     22  O   UNL     1     111.079 126.807 138.154  0.00  0.00    +0.000 OA
ATOM     23  O   UNL     1     108.899 126.051 139.051  0.00  0.00    +0.000 OA
ATOM     24  O   UNL     1     108.949 127.081 137.763  0.00  0.00    +0.000 OA
ATOM     25  O   UNL     1     110.303 125.525 139.741  0.00  0.00    +0.000 OA
ATOM     26  C   UNL     1     109.626 126.303 138.752  0.00  0.00    +0.000 C 
ATOM     27  C   UNL     1     109.651 126.818 138.108  0.00  0.00    +0.000 C 
ATOM     28  C   UNL     1     110.328 126.040 139.096  0.00  0.00    +0.000 C 
ATOM     29  C   UNL     1     110.377 127.070 137.809  0.00  0.00    +0.000 C 
ATOM     30  C   UNL     1     111.054 126.292 138.797  0.00  0.00    +0.000 C 
ATOM     31  C   UNL     1     110.401 127.585 137.165  0.00  0.00    +0.000 C 
ENDBRANCH  21  30
ENDBRANCH   5  21
TORSDOF 3
ENDMDL
MODEL 10
REMARK VINA RESULT:      -9.2     10.853     11.940
REMARK  Name = 5835713
REMARK  3 active torsions:
REMARK  status: ('A' for Active; 'I' for Inactive)
REMARK    1  A    between atoms: O_2  and  C_15
REMARK    2  A    between atoms: O_2  and  C_17
REMARK    3  A    between atoms: C_18  and  C_22
REMARK                            x       y       z     vdW  Elec       q    Type
REMARK                         _______ _______ _______ _____ _____    ______ ____
ROOT
ATOM      1  O   UNL     1     110.966 125.251 136.502  0.00  0.00    +0.000 OA
ATOM      2  O   UNL     1     113.163 126.334 136.145  0.00  0.00    +0.000 OA
ATOM      3  O   UNL     1     113.852 125.108 136.465  0.00  0.00    +0.000 OA
ATOM      4  O   UNL     1     112.288 122.741 137.160  0.00  0.00    +0.000 OA
ATOM      5  C   UNL     1     111.736 126.407 136.163  0.00  0.00    +0.000 A 
ATOM      6  C   UNL     1     111.004 126.045 136.282  0.00  0.00    +0.000 A 
ATOM      7  C   UNL     1     112.431 125.973 136.264  0.00  0.00    +0.000 A 
ATOM      8  C   UNL     1     112.393 125.179 136.484  0.00  0.00    +0.000 A 
ATOM      9  C   UNL     1     111.661 124.818 136.603  0.00  0.00    +0.000 A 
ATOM     10  C   UNL     1     113.123 124.738 136.587  0.00  0.00    +0.000 A 
ATOM     11  C   UNL     1     111.608 123.992 136.833  0.00  0.00    +0.000 A 
ATOM     12  C   UNL     1     113.091 123.911 136.816  0.00  0.00    +0.000 A 
ATOM     13  C   UNL     1     112.329 123.535 136.940  0.00  0.00    +0.000 A 
ENDROOT
BRANCH   6  15
ATOM     14  O   UNL     1     108.226 127.779 135.877  0.00  0.00    +0.000 OA
ATOM     15  C   UNL     1     110.309 126.479 136.181  0.00  0.00    +0.000 A 
ATOM     16  C   UNL     1     109.875 126.722 136.839  0.00  0.00    +0.000 A 
ATOM     17  C   UNL     1     110.049 126.669 135.422  0.00  0.00    +0.000 A 
ATOM     18  C   UNL     1     109.181 127.156 136.738  0.00  0.00    +0.000 A 
ATOM     19  C   UNL     1     109.354 127.103 135.320  0.00  0.00    +0.000 A 
ATOM     20  C   UNL     1     108.920 127.346 135.978  0.00  0.00    +0.000 A 
ENDBRANCH   6  15
BRANCH   5  21
ATOM     21  O   UNL     1     111.773 127.201 135.943  0.00  0.00    +0.000 OA
BRANCH  21  30
ATOM     22  O   UNL     1     112.180 127.648 137.238  0.00  0.00    +0.000 OA
ATOM     23  O   UNL     1     113.376 129.553 136.205  0.00  0.00    +0.000 OA
ATOM     24  O   UNL     1     113.384 129.365 137.844  0.00  0.00    +0.000 OA
ATOM     25  O   UNL     1     112.571 128.471 135.254  0.00  0.00    +0.000 OA
ATOM     26  C   UNL     1     112.977 128.918 136.549  0.00  0.00    +0.000 C 
ATOM     27  C   UNL     1     112.981 128.823 137.369  0.00  0.00    +0.000 C 
ATOM     28  C   UNL     1     112.575 128.377 136.075  0.00  0.00    +0.000 C 
ATOM     29  C   UNL     1     112.583 128.188 137.713  0.00  0.00    +0.000 C 
ATOM     30  C   UNL     1     112.176 127.742 136.419  0.00  0.00    +0.000 C 
ATOM     31  C   UNL     1     112.587 128.095 138.533  0.00  0.00    +0.000 C 
ENDBRANCH  21  30
ENDBRANCH   5  21
TORSDOF 3
ENDMDL
