MODEL 1
REMARK VINA RESULT:      -7.7      0.000      0.000
REMARK  Name = 85890320
REMARK  6 active torsions:
REMARK  status: ('A' for Active; 'I' for Inactive)
REMARK    1  A    between atoms: O_2  and  C_11
REMARK    2  A    between atoms: O_3  and  C_13
REMARK    3  A    between atoms: O_4  and  C_14
REMARK    4  A    between atoms: O_5  and  C_15
REMARK    5  A    between atoms: O_7  and  C_22
REMARK    6  A    between atoms: C_10  and  C_16
REMARK                            x       y       z     vdW  Elec       q    Type
REMARK                         _______ _______ _______ _____ _____    ______ ____
ROOT
ATOM      1  O   UNL     1     104.485 124.065 146.845  0.00  0.00    +0.000 OA
ATOM      2  O   UNL     1     102.723 125.330 148.036  0.00  0.00    +0.000 OA
ATOM      3  C   UNL     1     103.104 124.369 147.051  0.00  0.00    +0.000 A 
ATOM      4  C   UNL     1     103.692 123.947 146.654  0.00  0.00    +0.000 A 
ATOM      5  C   UNL     1     104.691 124.605 147.434  0.00  0.00    +0.000 A 
ATOM      6  C   UNL     1     102.274 124.255 146.860  0.00  0.00    +0.000 A 
ATOM      7  C   UNL     1     103.310 124.909 147.639  0.00  0.00    +0.000 A 
ATOM      8  C   UNL     1     104.104 125.027 147.831  0.00  0.00    +0.000 A 
ATOM      9  C   UNL     1     103.489 123.382 146.038  0.00  0.00    +0.000 A 
ATOM     10  C   UNL     1     102.053 123.694 146.248  0.00  0.00    +0.000 A 
ATOM     11  C   UNL     1     102.666 123.254 145.834  0.00  0.00    +0.000 A 
ENDROOT
BRANCH   5  12
ATOM     12  C   UNL     1     105.485 124.723 147.626  0.00  0.00    +0.000 A 
ATOM     13  C   UNL     1     105.954 125.214 147.156  0.00  0.00    +0.000 A 
ATOM     14  C   UNL     1     105.810 124.351 148.286  0.00  0.00    +0.000 A 
ATOM     15  C   UNL     1     106.748 125.332 147.347  0.00  0.00    +0.000 A 
ATOM     16  C   UNL     1     106.604 124.470 148.477  0.00  0.00    +0.000 A 
ATOM     17  C   UNL     1     107.073 124.960 148.007  0.00  0.00    +0.000 A 
BRANCH  17  18
ATOM     18  O   UNL     1     107.867 125.078 148.198  0.00  0.00    +0.000 OA
ATOM     19  C   UNL     1     108.243 124.571 148.729  0.00  0.00    +0.000 C 
ENDBRANCH  17  18
ENDBRANCH   5  12
BRANCH   6  20
ATOM     20  O   UNL     1     101.693 124.681 147.262  0.00  0.00    +0.000 OA
ATOM     21  C   UNL     1     101.284 124.330 147.887  0.00  0.00    +0.000 C 
ENDBRANCH   6  20
BRANCH   8  22
ATOM     22  O   UNL     1     104.310 125.567 148.419  0.00  0.00    +0.000 OA
ATOM     23  C   UNL     1     103.819 126.210 148.579  0.00  0.00    +0.000 C 
ENDBRANCH   8  22
BRANCH   9  24
ATOM     24  O   UNL     1     104.084 122.965 145.647  0.00  0.00    +0.000 OA
ATOM     25  C   UNL     1     103.980 122.739 144.860  0.00  0.00    +0.000 C 
ENDBRANCH   9  24
BRANCH  10  26
ATOM     26  O   UNL     1     101.259 123.577 146.058  0.00  0.00    +0.000 OA
ATOM     27  C   UNL     1     101.050 123.040 145.468  0.00  0.00    +0.000 C 
ENDBRANCH  10  26
TORSDOF 6
ENDMDL
MODEL 2
REMARK VINA RESULT:      -7.6     13.104     14.430
REMARK  Name = 85890320
REMARK  6 active torsions:
REMARK  status: ('A' for Active; 'I' for Inactive)
REMARK    1  A    between atoms: O_2  and  C_11
REMARK    2  A    between atoms: O_3  and  C_13
REMARK    3  A    between atoms: O_4  and  C_14
REMARK    4  A    between atoms: O_5  and  C_15
REMARK    5  A    between atoms: O_7  and  C_22
REMARK    6  A    between atoms: C_10  and  C_16
REMARK                            x       y       z     vdW  Elec       q    Type
REMARK                         _______ _______ _______ _____ _____    ______ ____
ROOT
ATOM      1  O   UNL     1     113.371 127.051 136.417  0.00  0.00    +0.000 OA
ATOM      2  O   UNL     1     110.953 126.961 135.898  0.00  0.00    +0.000 OA
ATOM      3  C   UNL     1     112.161 126.303 136.282  0.00  0.00    +0.000 A 
ATOM      4  C   UNL     1     112.967 126.333 136.455  0.00  0.00    +0.000 A 
ATOM      5  C   UNL     1     112.968 127.740 136.206  0.00  0.00    +0.000 A 
ATOM      6  C   UNL     1     111.730 125.560 136.318  0.00  0.00    +0.000 A 
ATOM      7  C   UNL     1     111.759 126.991 136.071  0.00  0.00    +0.000 A 
ATOM      8  C   UNL     1     112.162 127.710 136.033  0.00  0.00    +0.000 A 
ATOM      9  C   UNL     1     113.398 125.622 136.676  0.00  0.00    +0.000 A 
ATOM     10  C   UNL     1     112.144 124.840 136.537  0.00  0.00    +0.000 A 
ATOM     11  C   UNL     1     112.984 124.871 136.717  0.00  0.00    +0.000 A 
ENDROOT
BRANCH   5  12
ATOM     12  C   UNL     1     113.372 128.458 136.169  0.00  0.00    +0.000 A 
ATOM     13  C   UNL     1     113.718 128.700 135.459  0.00  0.00    +0.000 A 
ATOM     14  C   UNL     1     113.430 128.935 136.839  0.00  0.00    +0.000 A 
ATOM     15  C   UNL     1     114.122 129.418 135.421  0.00  0.00    +0.000 A 
ATOM     16  C   UNL     1     113.834 129.654 136.800  0.00  0.00    +0.000 A 
ATOM     17  C   UNL     1     114.180 129.895 136.092  0.00  0.00    +0.000 A 
BRANCH  17  18
ATOM     18  O   UNL     1     114.585 130.613 136.053  0.00  0.00    +0.000 OA
ATOM     19  C   UNL     1     115.289 130.667 135.627  0.00  0.00    +0.000 C 
ENDBRANCH  17  18
ENDBRANCH   5  12
BRANCH   6  20
ATOM     20  O   UNL     1     110.924 125.540 136.143  0.00  0.00    +0.000 OA
ATOM     21  C   UNL     1     110.673 125.354 135.380  0.00  0.00    +0.000 C 
ENDBRANCH   6  20
BRANCH   8  22
ATOM     22  O   UNL     1     111.760 128.398 135.823  0.00  0.00    +0.000 OA
ATOM     23  C   UNL     1     110.973 128.502 136.049  0.00  0.00    +0.000 C 
ENDBRANCH   8  22
BRANCH   9  24
ATOM     24  O   UNL     1     114.204 125.662 136.847  0.00  0.00    +0.000 OA
ATOM     25  C   UNL     1     114.616 124.977 137.051  0.00  0.00    +0.000 C 
ENDBRANCH   9  24
BRANCH  10  26
ATOM     26  O   UNL     1     111.738 124.123 136.574  0.00  0.00    +0.000 OA
ATOM     27  C   UNL     1     112.008 123.521 137.069  0.00  0.00    +0.000 C 
ENDBRANCH  10  26
TORSDOF 6
ENDMDL
MODEL 3
REMARK VINA RESULT:      -7.2     12.868     13.924
REMARK  Name = 85890320
REMARK  6 active torsions:
REMARK  status: ('A' for Active; 'I' for Inactive)
REMARK    1  A    between atoms: O_2  and  C_11
REMARK    2  A    between atoms: O_3  and  C_13
REMARK    3  A    between atoms: O_4  and  C_14
REMARK    4  A    between atoms: O_5  and  C_15
REMARK    5  A    between atoms: O_7  and  C_22
REMARK    6  A    between atoms: C_10  and  C_16
REMARK                            x       y       z     vdW  Elec       q    Type
REMARK                         _______ _______ _______ _____ _____    ______ ____
ROOT
ATOM      1  O   UNL     1     111.383 127.181 136.422  0.00  0.00    +0.000 OA
ATOM      2  O   UNL     1     110.932 124.895 135.586  0.00  0.00    +0.000 OA
ATOM      3  C   UNL     1     111.779 125.816 136.275  0.00  0.00    +0.000 A 
ATOM      4  C   UNL     1     111.930 126.578 136.554  0.00  0.00    +0.000 A 
ATOM      5  C   UNL     1     110.685 127.022 136.011  0.00  0.00    +0.000 A 
ATOM      6  C   UNL     1     112.342 125.179 136.407  0.00  0.00    +0.000 A 
ATOM      7  C   UNL     1     111.082 125.657 135.865  0.00  0.00    +0.000 A 
ATOM      8  C   UNL     1     110.534 126.260 135.732  0.00  0.00    +0.000 A 
ATOM      9  C   UNL     1     112.653 126.755 136.983  0.00  0.00    +0.000 A 
ATOM     10  C   UNL     1     113.070 125.339 136.834  0.00  0.00    +0.000 A 
ATOM     11  C   UNL     1     113.227 126.133 137.124  0.00  0.00    +0.000 A 
ENDROOT
BRANCH   5  12
ATOM     12  C   UNL     1     110.138 127.625 135.879  0.00  0.00    +0.000 A 
ATOM     13  C   UNL     1     109.503 127.726 136.398  0.00  0.00    +0.000 A 
ATOM     14  C   UNL     1     110.224 128.126 135.230  0.00  0.00    +0.000 A 
ATOM     15  C   UNL     1     108.956 128.330 136.266  0.00  0.00    +0.000 A 
ATOM     16  C   UNL     1     109.677 128.729 135.099  0.00  0.00    +0.000 A 
ATOM     17  C   UNL     1     109.043 128.831 135.617  0.00  0.00    +0.000 A 
BRANCH  17  18
ATOM     18  O   UNL     1     108.495 129.434 135.486  0.00  0.00    +0.000 OA
ATOM     19  C   UNL     1     108.541 130.134 135.921  0.00  0.00    +0.000 C 
ENDBRANCH  17  18
ENDBRANCH   5  12
BRANCH   6  20
ATOM     20  O   UNL     1     112.183 124.420 136.124  0.00  0.00    +0.000 OA
ATOM     21  C   UNL     1     111.854 123.855 136.627  0.00  0.00    +0.000 C 
ENDBRANCH   6  20
BRANCH   8  22
ATOM     22  O   UNL     1     109.837 126.101 135.322  0.00  0.00    +0.000 OA
ATOM     23  C   UNL     1     109.852 125.612 134.658  0.00  0.00    +0.000 C 
ENDBRANCH   8  22
BRANCH   9  24
ATOM     24  O   UNL     1     112.795 127.520 137.258  0.00  0.00    +0.000 OA
ATOM     25  C   UNL     1     113.200 127.635 137.967  0.00  0.00    +0.000 C 
ENDBRANCH   9  24
BRANCH  10  26
ATOM     26  O   UNL     1     113.616 124.734 136.964  0.00  0.00    +0.000 OA
ATOM     27  C   UNL     1     114.416 124.913 137.055  0.00  0.00    +0.000 C 
ENDBRANCH  10  26
TORSDOF 6
ENDMDL
MODEL 4
REMARK VINA RESULT:      -7.1     10.921     12.768
REMARK  Name = 85890320
REMARK  6 active torsions:
REMARK  status: ('A' for Active; 'I' for Inactive)
REMARK    1  A    between atoms: O_2  and  C_11
REMARK    2  A    between atoms: O_3  and  C_13
REMARK    3  A    between atoms: O_4  and  C_14
REMARK    4  A    between atoms: O_5  and  C_15
REMARK    5  A    between atoms: O_7  and  C_22
REMARK    6  A    between atoms: C_10  and  C_16
REMARK                            x       y       z     vdW  Elec       q    Type
REMARK                         _______ _______ _______ _____ _____    ______ ____
ROOT
ATOM      1  O   UNL     1     113.558 126.356 138.946  0.00  0.00    +0.000 OA
ATOM      2  O   UNL     1     111.127 125.906 138.825  0.00  0.00    +0.000 OA
ATOM      3  C   UNL     1     112.252 126.445 139.520  0.00  0.00    +0.000 A 
ATOM      4  C   UNL     1     113.063 126.595 139.560  0.00  0.00    +0.000 A 
ATOM      5  C   UNL     1     113.242 125.965 138.290  0.00  0.00    +0.000 A 
ATOM      6  C   UNL     1     111.727 126.690 140.155  0.00  0.00    +0.000 A 
ATOM      7  C   UNL     1     111.937 126.056 138.865  0.00  0.00    +0.000 A 
ATOM      8  C   UNL     1     112.432 125.816 138.250  0.00  0.00    +0.000 A 
ATOM      9  C   UNL     1     113.403 127.000 140.238  0.00  0.00    +0.000 A 
ATOM     10  C   UNL     1     112.049 127.096 140.839  0.00  0.00    +0.000 A 
ATOM     11  C   UNL     1     112.894 127.253 140.881  0.00  0.00    +0.000 A 
ENDROOT
BRANCH   5  12
ATOM     12  C   UNL     1     113.737 125.726 137.675  0.00  0.00    +0.000 A 
ATOM     13  C   UNL     1     113.829 126.205 137.009  0.00  0.00    +0.000 A 
ATOM     14  C   UNL     1     114.141 125.008 137.726  0.00  0.00    +0.000 A 
ATOM     15  C   UNL     1     114.324 125.966 136.395  0.00  0.00    +0.000 A 
ATOM     16  C   UNL     1     114.636 124.769 137.110  0.00  0.00    +0.000 A 
ATOM     17  C   UNL     1     114.728 125.248 136.445  0.00  0.00    +0.000 A 
BRANCH  17  18
ATOM     18  O   UNL     1     115.223 125.009 135.830  0.00  0.00    +0.000 OA
ATOM     19  C   UNL     1     115.604 125.575 135.365  0.00  0.00    +0.000 C 
ENDBRANCH  17  18
ENDBRANCH   5  12
BRANCH   6  20
ATOM     20  O   UNL     1     110.918 126.536 140.105  0.00  0.00    +0.000 OA
ATOM     21  C   UNL     1     110.405 127.116 139.820  0.00  0.00    +0.000 C 
ENDBRANCH   6  20
BRANCH   8  22
ATOM     22  O   UNL     1     112.117 125.426 137.595  0.00  0.00    +0.000 OA
ATOM     23  C   UNL     1     111.443 124.958 137.679  0.00  0.00    +0.000 C 
ENDBRANCH   8  22
BRANCH   9  24
ATOM     24  O   UNL     1     114.215 127.146 140.269  0.00  0.00    +0.000 OA
ATOM     25  C   UNL     1     114.581 127.282 140.996  0.00  0.00    +0.000 C 
ENDBRANCH   9  24
BRANCH  10  26
ATOM     26  O   UNL     1     111.552 127.335 141.453  0.00  0.00    +0.000 OA
ATOM     27  C   UNL     1     111.855 127.776 142.081  0.00  0.00    +0.000 C 
ENDBRANCH  10  26
TORSDOF 6
ENDMDL
MODEL 5
REMARK VINA RESULT:      -7.1      1.127      4.361
REMARK  Name = 85890320
REMARK  6 active torsions:
REMARK  status: ('A' for Active; 'I' for Inactive)
REMARK    1  A    between atoms: O_2  and  C_11
REMARK    2  A    between atoms: O_3  and  C_13
REMARK    3  A    between atoms: O_4  and  C_14
REMARK    4  A    between atoms: O_5  and  C_15
REMARK    5  A    between atoms: O_7  and  C_22
REMARK    6  A    between atoms: C_10  and  C_16
REMARK                            x       y       z     vdW  Elec       q    Type
REMARK                         _______ _______ _______ _____ _____    ______ ____
ROOT
ATOM      1  O   UNL     1     104.165 124.529 146.205  0.00  0.00    +0.000 OA
ATOM      2  O   UNL     1     104.613 124.645 148.637  0.00  0.00    +0.000 OA
ATOM      3  C   UNL     1     105.003 124.927 147.292  0.00  0.00    +0.000 A 
ATOM      4  C   UNL     1     104.854 124.889 146.482  0.00  0.00    +0.000 A 
ATOM      5  C   UNL     1     103.625 124.208 146.740  0.00  0.00    +0.000 A 
ATOM      6  C   UNL     1     105.718 125.299 147.592  0.00  0.00    +0.000 A 
ATOM      7  C   UNL     1     104.464 124.607 147.826  0.00  0.00    +0.000 A 
ATOM      8  C   UNL     1     103.774 124.247 147.551  0.00  0.00    +0.000 A 
ATOM      9  C   UNL     1     105.410 125.219 145.915  0.00  0.00    +0.000 A 
ATOM     10  C   UNL     1     106.284 125.635 147.040  0.00  0.00    +0.000 A 
ATOM     11  C   UNL     1     106.129 125.595 146.195  0.00  0.00    +0.000 A 
ENDROOT
BRANCH   5  12
ATOM     12  C   UNL     1     102.936 123.849 146.464  0.00  0.00    +0.000 A 
ATOM     13  C   UNL     1     102.212 124.241 146.528  0.00  0.00    +0.000 A 
ATOM     14  C   UNL     1     102.969 123.098 146.124  0.00  0.00    +0.000 A 
ATOM     15  C   UNL     1     101.523 123.882 146.251  0.00  0.00    +0.000 A 
ATOM     16  C   UNL     1     102.279 122.739 145.848  0.00  0.00    +0.000 A 
ATOM     17  C   UNL     1     101.557 123.131 145.911  0.00  0.00    +0.000 A 
BRANCH  17  18
ATOM     18  O   UNL     1     100.866 122.772 145.635  0.00  0.00    +0.000 OA
ATOM     19  C   UNL     1     100.710 122.749 144.826  0.00  0.00    +0.000 C 
ENDBRANCH  17  18
ENDBRANCH   5  12
BRANCH   6  20
ATOM     20  O   UNL     1     105.859 125.333 148.404  0.00  0.00    +0.000 OA
ATOM     21  C   UNL     1     106.447 124.863 148.740  0.00  0.00    +0.000 C 
ENDBRANCH   6  20
BRANCH   8  22
ATOM     22  O   UNL     1     103.234 123.926 148.085  0.00  0.00    +0.000 OA
ATOM     23  C   UNL     1     103.240 124.168 148.873  0.00  0.00    +0.000 C 
ENDBRANCH   8  22
BRANCH   9  24
ATOM     24  O   UNL     1     105.252 125.176 145.106  0.00  0.00    +0.000 OA
ATOM     25  C   UNL     1     105.872 125.212 144.562  0.00  0.00    +0.000 C 
ENDBRANCH   9  24
BRANCH  10  26
ATOM     26  O   UNL     1     106.973 125.994 147.318  0.00  0.00    +0.000 OA
ATOM     27  C   UNL     1     107.281 126.654 146.929  0.00  0.00    +0.000 C 
ENDBRANCH  10  26
TORSDOF 6
ENDMDL
MODEL 6
REMARK VINA RESULT:      -7.0     12.789     14.562
REMARK  Name = 85890320
REMARK  6 active torsions:
REMARK  status: ('A' for Active; 'I' for Inactive)
REMARK    1  A    between atoms: O_2  and  C_11
REMARK    2  A    between atoms: O_3  and  C_13
REMARK    3  A    between atoms: O_4  and  C_14
REMARK    4  A    between atoms: O_5  and  C_15
REMARK    5  A    between atoms: O_7  and  C_22
REMARK    6  A    between atoms: C_10  and  C_16
REMARK                            x       y       z     vdW  Elec       q    Type
REMARK                         _______ _______ _______ _____ _____    ______ ____
ROOT
ATOM      1  O   UNL     1     113.537 127.684 136.418  0.00  0.00    +0.000 OA
ATOM      2  O   UNL     1     112.366 128.681 138.357  0.00  0.00    +0.000 OA
ATOM      3  C   UNL     1     113.141 128.835 137.167  0.00  0.00    +0.000 A 
ATOM      4  C   UNL     1     113.531 128.502 136.521  0.00  0.00    +0.000 A 
ATOM      5  C   UNL     1     113.152 127.197 136.963  0.00  0.00    +0.000 A 
ATOM      6  C   UNL     1     113.128 129.686 137.285  0.00  0.00    +0.000 A 
ATOM      7  C   UNL     1     112.756 128.349 137.711  0.00  0.00    +0.000 A 
ATOM      8  C   UNL     1     112.761 127.530 137.609  0.00  0.00    +0.000 A 
ATOM      9  C   UNL     1     113.936 128.998 135.947  0.00  0.00    +0.000 A 
ATOM     10  C   UNL     1     113.527 130.197 136.721  0.00  0.00    +0.000 A 
ATOM     11  C   UNL     1     113.934 129.851 136.047  0.00  0.00    +0.000 A 
ENDROOT
BRANCH   5  12
ATOM     12  C   UNL     1     113.157 126.379 136.860  0.00  0.00    +0.000 A 
ATOM     13  C   UNL     1     113.794 125.933 137.139  0.00  0.00    +0.000 A 
ATOM     14  C   UNL     1     112.527 126.006 136.480  0.00  0.00    +0.000 A 
ATOM     15  C   UNL     1     113.800 125.115 137.036  0.00  0.00    +0.000 A 
ATOM     16  C   UNL     1     112.534 125.187 136.378  0.00  0.00    +0.000 A 
ATOM     17  C   UNL     1     113.170 124.742 136.656  0.00  0.00    +0.000 A 
BRANCH  17  18
ATOM     18  O   UNL     1     113.177 123.923 136.554  0.00  0.00    +0.000 OA
ATOM     19  C   UNL     1     112.563 123.464 136.860  0.00  0.00    +0.000 C 
ENDBRANCH  17  18
ENDBRANCH   5  12
BRANCH   6  20
ATOM     20  O   UNL     1     112.735 130.010 137.934  0.00  0.00    +0.000 OA
ATOM     21  C   UNL     1     111.961 130.282 137.852  0.00  0.00    +0.000 C 
ENDBRANCH   6  20
BRANCH   8  22
ATOM     22  O   UNL     1     112.377 127.044 138.153  0.00  0.00    +0.000 OA
ATOM     23  C   UNL     1     112.373 127.243 138.954  0.00  0.00    +0.000 C 
ENDBRANCH   8  22
BRANCH   9  24
ATOM     24  O   UNL     1     114.323 128.657 135.304  0.00  0.00    +0.000 OA
ATOM     25  C   UNL     1     114.645 129.136 134.714  0.00  0.00    +0.000 C 
ENDBRANCH   9  24
BRANCH  10  26
ATOM     26  O   UNL     1     113.520 131.016 136.826  0.00  0.00    +0.000 OA
ATOM     27  C   UNL     1     114.131 131.476 136.517  0.00  0.00    +0.000 C 
ENDBRANCH  10  26
TORSDOF 6
ENDMDL
MODEL 7
REMARK VINA RESULT:      -7.0     13.598     14.907
REMARK  Name = 85890320
REMARK  6 active torsions:
REMARK  status: ('A' for Active; 'I' for Inactive)
REMARK    1  A    between atoms: O_2  and  C_11
REMARK    2  A    between atoms: O_3  and  C_13
REMARK    3  A    between atoms: O_4  and  C_14
REMARK    4  A    between atoms: O_5  and  C_15
REMARK    5  A    between atoms: O_7  and  C_22
REMARK    6  A    between atoms: C_10  and  C_16
REMARK                            x       y       z     vdW  Elec       q    Type
REMARK                         _______ _______ _______ _____ _____    ______ ____
ROOT
ATOM      1  O   UNL     1     112.106 129.038 135.349  0.00  0.00    +0.000 OA
ATOM      2  O   UNL     1     112.242 126.729 136.229  0.00  0.00    +0.000 OA
ATOM      3  C   UNL     1     111.474 127.799 135.677  0.00  0.00    +0.000 A 
ATOM      4  C   UNL     1     111.428 128.569 135.384  0.00  0.00    +0.000 A 
ATOM      5  C   UNL     1     112.829 128.737 135.608  0.00  0.00    +0.000 A 
ATOM      6  C   UNL     1     110.774 127.301 135.718  0.00  0.00    +0.000 A 
ATOM      7  C   UNL     1     112.196 127.499 135.936  0.00  0.00    +0.000 A 
ATOM      8  C   UNL     1     112.875 127.967 135.901  0.00  0.00    +0.000 A 
ATOM      9  C   UNL     1     110.680 128.894 135.112  0.00  0.00    +0.000 A 
ATOM     10  C   UNL     1     110.018 127.609 135.451  0.00  0.00    +0.000 A 
ATOM     11  C   UNL     1     109.971 128.411 135.145  0.00  0.00    +0.000 A 
ENDROOT
BRANCH   5  12
ATOM     12  C   UNL     1     113.507 129.206 135.573  0.00  0.00    +0.000 A 
ATOM     13  C   UNL     1     114.011 129.155 134.921  0.00  0.00    +0.000 A 
ATOM     14  C   UNL     1     113.681 129.726 136.189  0.00  0.00    +0.000 A 
ATOM     15  C   UNL     1     114.688 129.624 134.886  0.00  0.00    +0.000 A 
ATOM     16  C   UNL     1     114.359 130.195 136.153  0.00  0.00    +0.000 A 
ATOM     17  C   UNL     1     114.862 130.145 135.502  0.00  0.00    +0.000 A 
BRANCH  17  18
ATOM     18  O   UNL     1     115.540 130.613 135.466  0.00  0.00    +0.000 OA
ATOM     19  C   UNL     1     115.616 131.183 134.873  0.00  0.00    +0.000 C 
ENDBRANCH  17  18
ENDBRANCH   5  12
BRANCH   6  20
ATOM     20  O   UNL     1     110.829 126.532 136.013  0.00  0.00    +0.000 OA
ATOM     21  C   UNL     1     110.896 125.896 135.493  0.00  0.00    +0.000 C 
ENDBRANCH   6  20
BRANCH   8  22
ATOM     22  O   UNL     1     113.598 127.667 136.159  0.00  0.00    +0.000 OA
ATOM     23  C   UNL     1     113.619 127.107 136.765  0.00  0.00    +0.000 C 
ENDBRANCH   8  22
BRANCH   9  24
ATOM     24  O   UNL     1     110.644 129.665 134.820  0.00  0.00    +0.000 OA
ATOM     25  C   UNL     1     109.917 129.994 134.612  0.00  0.00    +0.000 C 
ENDBRANCH   9  24
BRANCH  10  26
ATOM     26  O   UNL     1     109.342 127.138 135.487  0.00  0.00    +0.000 OA
ATOM     27  C   UNL     1     108.626 127.462 135.738  0.00  0.00    +0.000 C 
ENDBRANCH  10  26
TORSDOF 6
ENDMDL
MODEL 8
REMARK VINA RESULT:      -7.0     10.793     12.401
REMARK  Name = 85890320
REMARK  6 active torsions:
REMARK  status: ('A' for Active; 'I' for Inactive)
REMARK    1  A    between atoms: O_2  and  C_11
REMARK    2  A    between atoms: O_3  and  C_13
REMARK    3  A    between atoms: O_4  and  C_14
REMARK    4  A    between atoms: O_5  and  C_15
REMARK    5  A    between atoms: O_7  and  C_22
REMARK    6  A    between atoms: C_10  and  C_16
REMARK                            x       y       z     vdW  Elec       q    Type
REMARK                         _______ _______ _______ _____ _____    ______ ____
ROOT
ATOM      1  O   UNL     1     113.349 126.533 138.740  0.00  0.00    +0.000 OA
ATOM      2  O   UNL     1     110.877 126.419 138.720  0.00  0.00    +0.000 OA
ATOM      3  C   UNL     1     112.142 125.915 138.290  0.00  0.00    +0.000 A 
ATOM      4  C   UNL     1     112.966 125.953 138.297  0.00  0.00    +0.000 A 
ATOM      5  C   UNL     1     112.907 127.077 139.178  0.00  0.00    +0.000 A 
ATOM      6  C   UNL     1     111.732 125.314 137.832  0.00  0.00    +0.000 A 
ATOM      7  C   UNL     1     111.701 126.457 138.727  0.00  0.00    +0.000 A 
ATOM      8  C   UNL     1     112.083 127.039 139.171  0.00  0.00    +0.000 A 
ATOM      9  C   UNL     1     113.437 125.393 137.846  0.00  0.00    +0.000 A 
ATOM     10  C   UNL     1     112.187 124.746 137.375  0.00  0.00    +0.000 A 
ATOM     11  C   UNL     1     113.046 124.786 137.382  0.00  0.00    +0.000 A 
ENDROOT
BRANCH   5  12
ATOM     12  C   UNL     1     113.290 127.657 139.621  0.00  0.00    +0.000 A 
ATOM     13  C   UNL     1     113.594 127.473 140.366  0.00  0.00    +0.000 A 
ATOM     14  C   UNL     1     113.370 128.421 139.320  0.00  0.00    +0.000 A 
ATOM     15  C   UNL     1     113.978 128.054 140.809  0.00  0.00    +0.000 A 
ATOM     16  C   UNL     1     113.753 129.001 139.765  0.00  0.00    +0.000 A 
ATOM     17  C   UNL     1     114.057 128.818 140.509  0.00  0.00    +0.000 A 
BRANCH  17  18
ATOM     18  O   UNL     1     114.441 129.398 140.953  0.00  0.00    +0.000 OA
ATOM     19  C   UNL     1     114.174 130.178 140.930  0.00  0.00    +0.000 C 
ENDBRANCH  17  18
ENDBRANCH   5  12
BRANCH   6  20
ATOM     20  O   UNL     1     110.908 125.284 137.831  0.00  0.00    +0.000 OA
ATOM     21  C   UNL     1     110.482 125.682 137.247  0.00  0.00    +0.000 C 
ENDBRANCH   6  20
BRANCH   8  22
ATOM     22  O   UNL     1     111.642 127.581 139.607  0.00  0.00    +0.000 OA
ATOM     23  C   UNL     1     110.938 127.346 139.967  0.00  0.00    +0.000 C 
ENDBRANCH   8  22
BRANCH   9  24
ATOM     24  O   UNL     1     114.261 125.438 137.859  0.00  0.00    +0.000 OA
ATOM     25  C   UNL     1     114.706 125.022 137.302  0.00  0.00    +0.000 C 
ENDBRANCH   9  24
BRANCH  10  26
ATOM     26  O   UNL     1     111.801 124.166 136.932  0.00  0.00    +0.000 OA
ATOM     27  C   UNL     1     112.130 123.412 136.866  0.00  0.00    +0.000 C 
ENDBRANCH  10  26
TORSDOF 6
ENDMDL
MODEL 9
REMARK VINA RESULT:      -6.9      1.625      2.293
REMARK  Name = 85890320
REMARK  6 active torsions:
REMARK  status: ('A' for Active; 'I' for Inactive)
REMARK    1  A    between atoms: O_2  and  C_11
REMARK    2  A    between atoms: O_3  and  C_13
REMARK    3  A    between atoms: O_4  and  C_14
REMARK    4  A    between atoms: O_5  and  C_15
REMARK    5  A    between atoms: O_7  and  C_22
REMARK    6  A    between atoms: C_10  and  C_16
REMARK                            x       y       z     vdW  Elec       q    Type
REMARK                         _______ _______ _______ _____ _____    ______ ____
ROOT
ATOM      1  O   UNL     1     103.596 124.461 146.286  0.00  0.00    +0.000 OA
ATOM      2  O   UNL     1     103.987 124.572 148.728  0.00  0.00    +0.000 OA
ATOM      3  C   UNL     1     103.157 124.209 147.623  0.00  0.00    +0.000 A 
ATOM      4  C   UNL     1     103.027 124.172 146.809  0.00  0.00    +0.000 A 
ATOM      5  C   UNL     1     104.296 124.787 146.578  0.00  0.00    +0.000 A 
ATOM      6  C   UNL     1     102.572 123.911 148.178  0.00  0.00    +0.000 A 
ATOM      7  C   UNL     1     103.857 124.535 147.914  0.00  0.00    +0.000 A 
ATOM      8  C   UNL     1     104.426 124.825 147.392  0.00  0.00    +0.000 A 
ATOM      9  C   UNL     1     102.302 123.835 146.494  0.00  0.00    +0.000 A 
ATOM     10  C   UNL     1     101.842 123.571 147.881  0.00  0.00    +0.000 A 
ATOM     11  C   UNL     1     101.706 123.532 147.032  0.00  0.00    +0.000 A 
ENDROOT
BRANCH   5  12
ATOM     12  C   UNL     1     104.864 125.076 146.055  0.00  0.00    +0.000 A 
ATOM     13  C   UNL     1     104.908 125.886 145.900  0.00  0.00    +0.000 A 
ATOM     14  C   UNL     1     105.389 124.557 145.687  0.00  0.00    +0.000 A 
ATOM     15  C   UNL     1     105.477 126.175 145.377  0.00  0.00    +0.000 A 
ATOM     16  C   UNL     1     105.957 124.847 145.163  0.00  0.00    +0.000 A 
ATOM     17  C   UNL     1     106.001 125.655 145.009  0.00  0.00    +0.000 A 
BRANCH  17  18
ATOM     18  O   UNL     1     106.570 125.946 144.485  0.00  0.00    +0.000 OA
ATOM     19  C   UNL     1     106.337 126.379 143.823  0.00  0.00    +0.000 C 
ENDBRANCH  17  18
ENDBRANCH   5  12
BRANCH   6  20
ATOM     20  O   UNL     1     102.711 123.953 148.990  0.00  0.00    +0.000 OA
ATOM     21  C   UNL     1     102.416 124.588 149.426  0.00  0.00    +0.000 C 
ENDBRANCH   6  20
BRANCH   8  22
ATOM     22  O   UNL     1     105.125 125.151 147.682  0.00  0.00    +0.000 OA
ATOM     23  C   UNL     1     105.486 124.825 148.349  0.00  0.00    +0.000 C 
ENDBRANCH   8  22
BRANCH   9  24
ATOM     24  O   UNL     1     102.180 123.802 145.679  0.00  0.00    +0.000 OA
ATOM     25  C   UNL     1     101.613 123.289 145.367  0.00  0.00    +0.000 C 
ENDBRANCH   9  24
BRANCH  10  26
ATOM     26  O   UNL     1     101.274 123.282 148.405  0.00  0.00    +0.000 OA
ATOM     27  C   UNL     1     100.710 122.739 148.146  0.00  0.00    +0.000 C 
ENDBRANCH  10  26
TORSDOF 6
ENDMDL
MODEL 10
REMARK VINA RESULT:      -6.9      1.331      2.615
REMARK  Name = 85890320
REMARK  6 active torsions:
REMARK  status: ('A' for Active; 'I' for Inactive)
REMARK    1  A    between atoms: O_2  and  C_11
REMARK    2  A    between atoms: O_3  and  C_13
REMARK    3  A    between atoms: O_4  and  C_14
REMARK    4  A    between atoms: O_5  and  C_15
REMARK    5  A    between atoms: O_7  and  C_22
REMARK    6  A    between atoms: C_10  and  C_16
REMARK                            x       y       z     vdW  Elec       q    Type
REMARK                         _______ _______ _______ _____ _____    ______ ____
ROOT
ATOM      1  O   UNL     1     103.792 124.573 147.429  0.00  0.00    +0.000 OA
ATOM      2  O   UNL     1     102.843 123.103 145.679  0.00  0.00    +0.000 OA
ATOM      3  C   UNL     1     102.778 123.667 146.990  0.00  0.00    +0.000 A 
ATOM      4  C   UNL     1     103.095 124.157 147.573  0.00  0.00    +0.000 A 
ATOM      5  C   UNL     1     104.173 124.499 146.700  0.00  0.00    +0.000 A 
ATOM      6  C   UNL     1     102.052 123.228 147.129  0.00  0.00    +0.000 A 
ATOM      7  C   UNL     1     103.159 123.593 146.262  0.00  0.00    +0.000 A 
ATOM      8  C   UNL     1     103.857 124.009 146.117  0.00  0.00    +0.000 A 
ATOM      9  C   UNL     1     102.707 124.242 148.336  0.00  0.00    +0.000 A 
ATOM     10  C   UNL     1     101.651 123.301 147.885  0.00  0.00    +0.000 A 
ATOM     11  C   UNL     1     101.981 123.812 148.493  0.00  0.00    +0.000 A 
ENDROOT
BRANCH   5  12
ATOM     12  C   UNL     1     104.870 124.916 146.556  0.00  0.00    +0.000 A 
ATOM     13  C   UNL     1     105.593 124.611 146.814  0.00  0.00    +0.000 A 
ATOM     14  C   UNL     1     104.846 125.636 146.154  0.00  0.00    +0.000 A 
ATOM     15  C   UNL     1     106.290 125.028 146.670  0.00  0.00    +0.000 A 
ATOM     16  C   UNL     1     105.544 126.051 146.010  0.00  0.00    +0.000 A 
ATOM     17  C   UNL     1     106.266 125.748 146.268  0.00  0.00    +0.000 A 
BRANCH  17  18
ATOM     18  O   UNL     1     106.964 126.163 146.125  0.00  0.00    +0.000 OA
ATOM     19  C   UNL     1     107.172 126.799 146.607  0.00  0.00    +0.000 C 
ENDBRANCH  17  18
ENDBRANCH   5  12
BRANCH   6  20
ATOM     20  O   UNL     1     101.743 122.740 146.539  0.00  0.00    +0.000 OA
ATOM     21  C   UNL     1     101.144 123.020 146.046  0.00  0.00    +0.000 C 
ENDBRANCH   6  20
BRANCH   8  22
ATOM     22  O   UNL     1     104.237 123.935 145.389  0.00  0.00    +0.000 OA
ATOM     23  C   UNL     1     104.103 123.271 144.919  0.00  0.00    +0.000 C 
ENDBRANCH   8  22
BRANCH   9  24
ATOM     24  O   UNL     1     103.031 124.734 148.913  0.00  0.00    +0.000 OA
ATOM     25  C   UNL     1     102.616 124.880 149.611  0.00  0.00    +0.000 C 
ENDBRANCH   9  24
BRANCH  10  26
ATOM     26  O   UNL     1     100.954 122.883 148.027  0.00  0.00    +0.000 OA
ATOM     27  C   UNL     1     100.710 122.739 148.802  0.00  0.00    +0.000 C 
ENDBRANCH  10  26
TORSDOF 6
ENDMDL
