MODEL 1
REMARK VINA RESULT:     -10.8      0.000      0.000
REMARK  Name = 131833694
REMARK  6 active torsions:
REMARK  status: ('A' for Active; 'I' for Inactive)
REMARK    1  A    between atoms: O_2  and  C_20
REMARK    2  A    between atoms: O_2  and  C_26
REMARK    3  A    between atoms: O_15  and  C_41
REMARK    4  A    between atoms: C_19  and  C_24
REMARK    5  A    between atoms: C_23  and  C_31
REMARK    6  A    between atoms: C_37  and  C_38
REMARK                            x       y       z     vdW  Elec       q    Type
REMARK                         _______ _______ _______ _____ _____    ______ ____
ROOT
ATOM      1  O   UNL     1     113.077 126.278 138.919  0.00  0.00    +0.000 OA
ATOM      2  O   UNL     1     114.314 127.755 141.062  0.00  0.00    +0.000 OA
ATOM      3  O   UNL     1     112.110 128.444 138.032  0.00  0.00    +0.000 OA
ATOM      4  C   UNL     1     113.529 128.450 140.091  0.00  0.00    +0.000 A 
ATOM      5  C   UNL     1     113.062 128.442 139.412  0.00  0.00    +0.000 A 
ATOM      6  C   UNL     1     112.911 127.730 139.023  0.00  0.00    +0.000 A 
ATOM      7  C   UNL     1     113.846 127.746 140.382  0.00  0.00    +0.000 A 
ATOM      8  C   UNL     1     113.228 127.026 139.315  0.00  0.00    +0.000 A 
ATOM      9  C   UNL     1     113.695 127.034 139.994  0.00  0.00    +0.000 A 
ATOM     10  C   UNL     1     112.422 127.735 138.316  0.00  0.00    +0.000 A 
ATOM     11  C   UNL     1     112.262 126.996 137.907  0.00  0.00    +0.000 A 
ATOM     12  C   UNL     1     112.591 126.263 138.211  0.00  0.00    +0.000 A 
ENDROOT
BRANCH   4  17
ATOM     13  O   UNL     1     114.308 129.639 140.238  0.00  0.00    +0.000 OA
ATOM     14  O   UNL     1     112.574 128.921 141.351  0.00  0.00    +0.000 OA
ATOM     15  O   UNL     1     112.874 130.345 142.128  0.00  0.00    +0.000 OA
ATOM     16  O   UNL     1     114.130 131.299 141.645  0.00  0.00    +0.000 OA
ATOM     17  C   UNL     1     113.680 129.163 140.480  0.00  0.00    +0.000 C 
ATOM     18  C   UNL     1     113.202 129.398 141.110  0.00  0.00    +0.000 C 
ATOM     19  C   UNL     1     113.352 130.110 141.498  0.00  0.00    +0.000 C 
ATOM     20  C   UNL     1     114.459 130.352 140.626  0.00  0.00    +0.000 C 
ATOM     21  C   UNL     1     113.980 130.587 141.257  0.00  0.00    +0.000 C 
ATOM     22  C   UNL     1     115.087 130.829 140.385  0.00  0.00    +0.000 C 
ENDBRANCH   4  17
BRANCH  12  24
ATOM     23  O   UNL     1     111.995 123.409 136.666  0.00  0.00    +0.000 OA
ATOM     24  C   UNL     1     112.442 125.550 137.825  0.00  0.00    +0.000 A 
ATOM     25  C   UNL     1     113.016 125.219 137.333  0.00  0.00    +0.000 A 
ATOM     26  C   UNL     1     111.719 125.167 137.930  0.00  0.00    +0.000 A 
ATOM     27  C   UNL     1     112.867 124.505 136.947  0.00  0.00    +0.000 A 
ATOM     28  C   UNL     1     111.569 124.453 137.544  0.00  0.00    +0.000 A 
ATOM     29  C   UNL     1     112.144 124.122 137.052  0.00  0.00    +0.000 A 
BRANCH  27  30
ATOM     30  O   UNL     1     113.441 124.175 136.455  0.00  0.00    +0.000 OA
ATOM     31  C   UNL     1     114.148 124.578 136.318  0.00  0.00    +0.000 C 
ENDBRANCH  27  30
ENDBRANCH  12  24
BRANCH   5  32
ATOM     32  O   UNL     1     112.745 129.146 139.120  0.00  0.00    +0.000 OA
BRANCH  32  39
ATOM     33  O   UNL     1     113.125 129.984 138.027  0.00  0.00    +0.000 OA
ATOM     34  O   UNL     1     111.298 129.933 139.220  0.00  0.00    +0.000 OA
ATOM     35  O   UNL     1     110.955 131.165 138.177  0.00  0.00    +0.000 OA
ATOM     36  O   UNL     1     112.059 131.609 137.034  0.00  0.00    +0.000 OA
ATOM     37  C   UNL     1     111.850 130.155 138.649  0.00  0.00    +0.000 C 
ATOM     38  C   UNL     1     111.679 130.771 138.127  0.00  0.00    +0.000 C 
ATOM     39  C   UNL     1     112.573 129.762 138.599  0.00  0.00    +0.000 C 
ATOM     40  C   UNL     1     112.231 130.993 137.556  0.00  0.00    +0.000 C 
ATOM     41  C   UNL     1     112.953 130.600 137.506  0.00  0.00    +0.000 C 
BRANCH  41  44
ATOM     42  O   UNL     1     114.098 131.365 137.123  0.00  0.00    +0.000 OA
ATOM     43  O   UNL     1     113.466 130.501 136.176  0.00  0.00    +0.000 OA
ATOM     44  C   UNL     1     113.506 130.822 136.935  0.00  0.00    +0.000 C 
ENDBRANCH  41  44
ENDBRANCH  32  39
ENDBRANCH   5  32
TORSDOF 6
ENDMDL
MODEL 2
REMARK VINA RESULT:     -10.8      0.463      1.226
REMARK  Name = 131833694
REMARK  6 active torsions:
REMARK  status: ('A' for Active; 'I' for Inactive)
REMARK    1  A    between atoms: O_2  and  C_20
REMARK    2  A    between atoms: O_2  and  C_26
REMARK    3  A    between atoms: O_15  and  C_41
REMARK    4  A    between atoms: C_19  and  C_24
REMARK    5  A    between atoms: C_23  and  C_31
REMARK    6  A    between atoms: C_37  and  C_38
REMARK                            x       y       z     vdW  Elec       q    Type
REMARK                         _______ _______ _______ _____ _____    ______ ____
ROOT
ATOM      1  O   UNL     1     113.028 126.418 138.977  0.00  0.00    +0.000 OA
ATOM      2  O   UNL     1     114.077 127.865 141.237  0.00  0.00    +0.000 OA
ATOM      3  O   UNL     1     112.694 128.618 137.768  0.00  0.00    +0.000 OA
ATOM      4  C   UNL     1     113.651 128.585 140.079  0.00  0.00    +0.000 A 
ATOM      5  C   UNL     1     113.335 128.590 139.317  0.00  0.00    +0.000 A 
ATOM      6  C   UNL     1     113.129 127.880 138.951  0.00  0.00    +0.000 A 
ATOM      7  C   UNL     1     113.761 127.869 140.475  0.00  0.00    +0.000 A 
ATOM      8  C   UNL     1     113.239 127.165 139.347  0.00  0.00    +0.000 A 
ATOM      9  C   UNL     1     113.555 127.159 140.109  0.00  0.00    +0.000 A 
ATOM     10  C   UNL     1     112.801 127.898 138.157  0.00  0.00    +0.000 A 
ATOM     11  C   UNL     1     112.584 127.161 137.771  0.00  0.00    +0.000 A 
ATOM     12  C   UNL     1     112.699 126.417 138.183  0.00  0.00    +0.000 A 
ENDROOT
BRANCH   4  17
ATOM     13  O   UNL     1     114.573 129.660 140.263  0.00  0.00    +0.000 OA
ATOM     14  O   UNL     1     112.627 129.276 141.173  0.00  0.00    +0.000 OA
ATOM     15  O   UNL     1     113.038 130.696 141.904  0.00  0.00    +0.000 OA
ATOM     16  O   UNL     1     114.472 131.426 141.542  0.00  0.00    +0.000 OA
ATOM     17  C   UNL     1     113.857 129.296 140.445  0.00  0.00    +0.000 C 
ATOM     18  C   UNL     1     113.344 129.641 140.992  0.00  0.00    +0.000 C 
ATOM     19  C   UNL     1     113.550 130.351 141.358  0.00  0.00    +0.000 C 
ATOM     20  C   UNL     1     114.779 130.371 140.629  0.00  0.00    +0.000 C 
ATOM     21  C   UNL     1     114.267 130.716 141.176  0.00  0.00    +0.000 C 
ATOM     22  C   UNL     1     115.496 130.736 140.447  0.00  0.00    +0.000 C 
ENDBRANCH   4  17
BRANCH  12  24
ATOM     23  O   UNL     1     111.879 123.570 136.730  0.00  0.00    +0.000 OA
ATOM     24  C   UNL     1     112.494 125.705 137.820  0.00  0.00    +0.000 A 
ATOM     25  C   UNL     1     113.047 125.303 137.358  0.00  0.00    +0.000 A 
ATOM     26  C   UNL     1     111.735 125.395 137.919  0.00  0.00    +0.000 A 
ATOM     27  C   UNL     1     112.842 124.592 136.995  0.00  0.00    +0.000 A 
ATOM     28  C   UNL     1     111.530 124.683 137.556  0.00  0.00    +0.000 A 
ATOM     29  C   UNL     1     112.083 124.281 137.094  0.00  0.00    +0.000 A 
BRANCH  27  30
ATOM     30  O   UNL     1     113.395 124.190 136.533  0.00  0.00    +0.000 OA
ATOM     31  C   UNL     1     114.122 124.542 136.362  0.00  0.00    +0.000 C 
ENDBRANCH  27  30
ENDBRANCH  12  24
BRANCH   5  32
ATOM     32  O   UNL     1     113.225 129.305 138.920  0.00  0.00    +0.000 OA
BRANCH  32  39
ATOM     33  O   UNL     1     112.073 130.125 138.713  0.00  0.00    +0.000 OA
ATOM     34  O   UNL     1     114.019 130.120 137.725  0.00  0.00    +0.000 OA
ATOM     35  O   UNL     1     113.264 131.347 136.921  0.00  0.00    +0.000 OA
ATOM     36  O   UNL     1     111.716 131.758 137.311  0.00  0.00    +0.000 OA
ATOM     37  C   UNL     1     113.244 130.325 137.921  0.00  0.00    +0.000 C 
ATOM     38  C   UNL     1     112.867 130.939 137.518  0.00  0.00    +0.000 C 
ATOM     39  C   UNL     1     112.848 129.919 138.518  0.00  0.00    +0.000 C 
ATOM     40  C   UNL     1     112.092 131.145 137.714  0.00  0.00    +0.000 C 
ATOM     41  C   UNL     1     111.696 130.738 138.311  0.00  0.00    +0.000 C 
BRANCH  41  44
ATOM     42  O   UNL     1     110.780 131.492 139.107  0.00  0.00    +0.000 OA
ATOM     43  O   UNL     1     110.288 130.602 138.102  0.00  0.00    +0.000 OA
ATOM     44  C   UNL     1     110.921 130.944 138.506  0.00  0.00    +0.000 C 
ENDBRANCH  41  44
ENDBRANCH  32  39
ENDBRANCH   5  32
TORSDOF 6
ENDMDL
MODEL 3
REMARK VINA RESULT:     -10.4      2.363      4.400
REMARK  Name = 131833694
REMARK  6 active torsions:
REMARK  status: ('A' for Active; 'I' for Inactive)
REMARK    1  A    between atoms: O_2  and  C_20
REMARK    2  A    between atoms: O_2  and  C_26
REMARK    3  A    between atoms: O_15  and  C_41
REMARK    4  A    between atoms: C_19  and  C_24
REMARK    5  A    between atoms: C_23  and  C_31
REMARK    6  A    between atoms: C_37  and  C_38
REMARK                            x       y       z     vdW  Elec       q    Type
REMARK                         _______ _______ _______ _____ _____    ______ ____
ROOT
ATOM      1  O   UNL     1     112.312 126.822 136.264  0.00  0.00    +0.000 OA
ATOM      2  O   UNL     1     110.620 128.469 134.613  0.00  0.00    +0.000 OA
ATOM      3  O   UNL     1     111.252 127.855 138.319  0.00  0.00    +0.000 OA
ATOM      4  C   UNL     1     110.522 128.565 136.035  0.00  0.00    +0.000 A 
ATOM      5  C   UNL     1     110.767 128.328 136.786  0.00  0.00    +0.000 A 
ATOM      6  C   UNL     1     111.355 127.755 136.866  0.00  0.00    +0.000 A 
ATOM      7  C   UNL     1     110.865 128.231 135.364  0.00  0.00    +0.000 A 
ATOM      8  C   UNL     1     111.698 127.420 136.194  0.00  0.00    +0.000 A 
ATOM      9  C   UNL     1     111.453 127.658 135.444  0.00  0.00    +0.000 A 
ATOM     10  C   UNL     1     111.601 127.515 137.653  0.00  0.00    +0.000 A 
ATOM     11  C   UNL     1     112.214 126.918 137.743  0.00  0.00    +0.000 A 
ATOM     12  C   UNL     1     112.571 126.570 137.044  0.00  0.00    +0.000 A 
ENDROOT
BRANCH   4  17
ATOM     13  O   UNL     1     110.133 129.938 135.964  0.00  0.00    +0.000 OA
ATOM     14  O   UNL     1     108.945 128.110 135.861  0.00  0.00    +0.000 OA
ATOM     15  O   UNL     1     107.769 129.255 135.703  0.00  0.00    +0.000 OA
ATOM     16  O   UNL     1     108.167 130.856 135.719  0.00  0.00    +0.000 OA
ATOM     17  C   UNL     1     109.933 129.139 135.956  0.00  0.00    +0.000 C 
ATOM     18  C   UNL     1     109.145 128.911 135.869  0.00  0.00    +0.000 C 
ATOM     19  C   UNL     1     108.556 129.483 135.790  0.00  0.00    +0.000 C 
ATOM     20  C   UNL     1     109.544 130.512 135.885  0.00  0.00    +0.000 C 
ATOM     21  C   UNL     1     108.756 130.283 135.798  0.00  0.00    +0.000 C 
ATOM     22  C   UNL     1     109.743 131.312 135.893  0.00  0.00    +0.000 C 
ENDBRANCH   4  17
BRANCH  12  24
ATOM     23  O   UNL     1     114.925 124.277 137.349  0.00  0.00    +0.000 OA
ATOM     24  C   UNL     1     113.159 125.997 137.120  0.00  0.00    +0.000 A 
ATOM     25  C   UNL     1     112.970 125.198 137.041  0.00  0.00    +0.000 A 
ATOM     26  C   UNL     1     113.938 126.223 137.276  0.00  0.00    +0.000 A 
ATOM     27  C   UNL     1     113.558 124.625 137.117  0.00  0.00    +0.000 A 
ATOM     28  C   UNL     1     114.527 125.649 137.352  0.00  0.00    +0.000 A 
ATOM     29  C   UNL     1     114.337 124.851 137.273  0.00  0.00    +0.000 A 
BRANCH  27  30
ATOM     30  O   UNL     1     113.368 123.826 137.038  0.00  0.00    +0.000 OA
ATOM     31  C   UNL     1     112.578 123.594 136.984  0.00  0.00    +0.000 C 
ENDBRANCH  27  30
ENDBRANCH  12  24
BRANCH   5  32
ATOM     32  O   UNL     1     110.423 128.662 137.458  0.00  0.00    +0.000 OA
BRANCH  32  39
ATOM     33  O   UNL     1     110.868 129.675 138.362  0.00  0.00    +0.000 OA
ATOM     34  O   UNL     1     109.264 128.205 138.539  0.00  0.00    +0.000 OA
ATOM     35  O   UNL     1     109.129 128.990 139.985  0.00  0.00    +0.000 OA
ATOM     36  O   UNL     1     110.153 130.231 140.348  0.00  0.00    +0.000 OA
ATOM     37  C   UNL     1     109.776 128.826 138.721  0.00  0.00    +0.000 C 
ATOM     38  C   UNL     1     109.709 129.218 139.444  0.00  0.00    +0.000 C 
ATOM     39  C   UNL     1     110.355 129.054 138.180  0.00  0.00    +0.000 C 
ATOM     40  C   UNL     1     110.221 129.839 139.625  0.00  0.00    +0.000 C 
ATOM     41  C   UNL     1     110.800 130.067 139.085  0.00  0.00    +0.000 C 
BRANCH  41  44
ATOM     42  O   UNL     1     112.012 130.538 139.677  0.00  0.00    +0.000 OA
ATOM     43  O   UNL     1     111.125 131.458 139.037  0.00  0.00    +0.000 OA
ATOM     44  C   UNL     1     111.312 130.688 139.266  0.00  0.00    +0.000 C 
ENDBRANCH  41  44
ENDBRANCH  32  39
ENDBRANCH   5  32
TORSDOF 6
ENDMDL
MODEL 4
REMARK VINA RESULT:     -10.3      1.590      5.264
REMARK  Name = 131833694
REMARK  6 active torsions:
REMARK  status: ('A' for Active; 'I' for Inactive)
REMARK    1  A    between atoms: O_2  and  C_20
REMARK    2  A    between atoms: O_2  and  C_26
REMARK    3  A    between atoms: O_15  and  C_41
REMARK    4  A    between atoms: C_19  and  C_24
REMARK    5  A    between atoms: C_23  and  C_31
REMARK    6  A    between atoms: C_37  and  C_38
REMARK                            x       y       z     vdW  Elec       q    Type
REMARK                         _______ _______ _______ _____ _____    ______ ____
ROOT
ATOM      1  O   UNL     1     113.617 128.525 139.799  0.00  0.00    +0.000 OA
ATOM      2  O   UNL     1     112.914 125.809 139.142  0.00  0.00    +0.000 OA
ATOM      3  O   UNL     1     112.829 129.248 137.504  0.00  0.00    +0.000 OA
ATOM      4  C   UNL     1     112.703 126.843 138.178  0.00  0.00    +0.000 A 
ATOM      5  C   UNL     1     112.747 127.637 137.961  0.00  0.00    +0.000 A 
ATOM      6  C   UNL     1     113.047 128.194 138.491  0.00  0.00    +0.000 A 
ATOM      7  C   UNL     1     112.959 126.605 138.925  0.00  0.00    +0.000 A 
ATOM      8  C   UNL     1     113.303 127.955 139.238  0.00  0.00    +0.000 A 
ATOM      9  C   UNL     1     113.259 127.161 139.455  0.00  0.00    +0.000 A 
ATOM     10  C   UNL     1     113.088 129.018 138.253  0.00  0.00    +0.000 A 
ATOM     11  C   UNL     1     113.399 129.603 138.802  0.00  0.00    +0.000 A 
ATOM     12  C   UNL     1     113.666 129.355 139.579  0.00  0.00    +0.000 A 
ENDROOT
BRANCH   4  17
ATOM     13  O   UNL     1     111.589 126.166 137.594  0.00  0.00    +0.000 OA
ATOM     14  O   UNL     1     113.731 125.973 137.226  0.00  0.00    +0.000 OA
ATOM     15  O   UNL     1     113.132 124.861 136.165  0.00  0.00    +0.000 OA
ATOM     16  O   UNL     1     111.504 124.618 136.056  0.00  0.00    +0.000 OA
ATOM     17  C   UNL     1     112.402 126.286 137.648  0.00  0.00    +0.000 C 
ATOM     18  C   UNL     1     112.917 125.851 137.171  0.00  0.00    +0.000 C 
ATOM     19  C   UNL     1     112.618 125.295 136.641  0.00  0.00    +0.000 C 
ATOM     20  C   UNL     1     111.289 125.609 137.063  0.00  0.00    +0.000 C 
ATOM     21  C   UNL     1     111.804 125.174 136.586  0.00  0.00    +0.000 C 
ATOM     22  C   UNL     1     110.475 125.488 137.008  0.00  0.00    +0.000 C 
ENDBRANCH   4  17
BRANCH  12  24
ATOM     23  O   UNL     1     114.868 131.570 141.709  0.00  0.00    +0.000 OA
ATOM     24  C   UNL     1     113.966 129.908 140.112  0.00  0.00    +0.000 A 
ATOM     25  C   UNL     1     113.478 130.227 140.695  0.00  0.00    +0.000 A 
ATOM     26  C   UNL     1     114.756 130.144 140.060  0.00  0.00    +0.000 A 
ATOM     27  C   UNL     1     113.779 130.781 141.227  0.00  0.00    +0.000 A 
ATOM     28  C   UNL     1     115.057 130.698 140.593  0.00  0.00    +0.000 A 
ATOM     29  C   UNL     1     114.568 131.016 141.176  0.00  0.00    +0.000 A 
BRANCH  27  30
ATOM     30  O   UNL     1     113.290 131.100 141.811  0.00  0.00    +0.000 OA
ATOM     31  C   UNL     1     112.681 130.644 142.133  0.00  0.00    +0.000 C 
ENDBRANCH  27  30
ENDBRANCH  12  24
BRANCH   5  32
ATOM     32  O   UNL     1     112.491 127.876 137.214  0.00  0.00    +0.000 OA
BRANCH  32  39
ATOM     33  O   UNL     1     111.296 128.519 136.766  0.00  0.00    +0.000 OA
ATOM     34  O   UNL     1     113.221 128.234 135.778  0.00  0.00    +0.000 OA
ATOM     35  O   UNL     1     112.392 129.055 134.612  0.00  0.00    +0.000 OA
ATOM     36  O   UNL     1     110.832 129.518 134.882  0.00  0.00    +0.000 OA
ATOM     37  C   UNL     1     112.441 128.465 135.914  0.00  0.00    +0.000 C 
ATOM     38  C   UNL     1     112.026 128.876 135.330  0.00  0.00    +0.000 C 
ATOM     39  C   UNL     1     112.077 128.287 136.631  0.00  0.00    +0.000 C 
ATOM     40  C   UNL     1     111.246 129.108 135.466  0.00  0.00    +0.000 C 
ATOM     41  C   UNL     1     110.881 128.929 136.183  0.00  0.00    +0.000 C 
BRANCH  41  44
ATOM     42  O   UNL     1     109.483 128.636 136.164  0.00  0.00    +0.000 OA
ATOM     43  O   UNL     1     109.939 129.916 136.607  0.00  0.00    +0.000 OA
ATOM     44  C   UNL     1     110.101 129.161 136.318  0.00  0.00    +0.000 C 
ENDBRANCH  41  44
ENDBRANCH  32  39
ENDBRANCH   5  32
TORSDOF 6
ENDMDL
MODEL 5
REMARK VINA RESULT:     -10.2      1.402      4.995
REMARK  Name = 131833694
REMARK  6 active torsions:
REMARK  status: ('A' for Active; 'I' for Inactive)
REMARK    1  A    between atoms: O_2  and  C_20
REMARK    2  A    between atoms: O_2  and  C_26
REMARK    3  A    between atoms: O_15  and  C_41
REMARK    4  A    between atoms: C_19  and  C_24
REMARK    5  A    between atoms: C_23  and  C_31
REMARK    6  A    between atoms: C_37  and  C_38
REMARK                            x       y       z     vdW  Elec       q    Type
REMARK                         _______ _______ _______ _____ _____    ______ ____
ROOT
ATOM      1  O   UNL     1     113.411 128.511 140.287  0.00  0.00    +0.000 OA
ATOM      2  O   UNL     1     113.789 125.780 139.449  0.00  0.00    +0.000 OA
ATOM      3  O   UNL     1     112.726 129.105 137.923  0.00  0.00    +0.000 OA
ATOM      4  C   UNL     1     113.358 126.754 138.497  0.00  0.00    +0.000 A 
ATOM      5  C   UNL     1     113.151 127.531 138.313  0.00  0.00    +0.000 A 
ATOM      6  C   UNL     1     113.166 128.112 138.899  0.00  0.00    +0.000 A 
ATOM      7  C   UNL     1     113.582 126.558 139.266  0.00  0.00    +0.000 A 
ATOM      8  C   UNL     1     113.390 127.915 139.668  0.00  0.00    +0.000 A 
ATOM      9  C   UNL     1     113.598 127.138 139.852  0.00  0.00    +0.000 A 
ATOM     10  C   UNL     1     112.948 128.917 138.695  0.00  0.00    +0.000 A 
ATOM     11  C   UNL     1     112.963 129.527 139.302  0.00  0.00    +0.000 A 
ATOM     12  C   UNL     1     113.196 129.322 140.103  0.00  0.00    +0.000 A 
ENDROOT
BRANCH   4  17
ATOM     13  O   UNL     1     113.995 126.064 137.420  0.00  0.00    +0.000 OA
ATOM     14  O   UNL     1     112.017 125.812 138.306  0.00  0.00    +0.000 OA
ATOM     15  O   UNL     1     111.984 124.652 137.134  0.00  0.00    +0.000 OA
ATOM     16  O   UNL     1     113.291 124.432 136.153  0.00  0.00    +0.000 OA
ATOM     17  C   UNL     1     113.342 126.173 137.910  0.00  0.00    +0.000 C 
ATOM     18  C   UNL     1     112.671 125.702 137.815  0.00  0.00    +0.000 C 
ATOM     19  C   UNL     1     112.654 125.122 137.229  0.00  0.00    +0.000 C 
ATOM     20  C   UNL     1     113.979 125.483 136.834  0.00  0.00    +0.000 C 
ATOM     21  C   UNL     1     113.308 125.012 136.738  0.00  0.00    +0.000 C 
ATOM     22  C   UNL     1     114.633 125.374 136.343  0.00  0.00    +0.000 C 
ENDBRANCH   4  17
BRANCH  12  24
ATOM     23  O   UNL     1     113.265 131.635 142.455  0.00  0.00    +0.000 OA
ATOM     24  C   UNL     1     113.213 129.900 140.691  0.00  0.00    +0.000 A 
ATOM     25  C   UNL     1     113.889 130.361 140.798  0.00  0.00    +0.000 A 
ATOM     26  C   UNL     1     112.554 130.018 141.172  0.00  0.00    +0.000 A 
ATOM     27  C   UNL     1     113.907 130.939 141.385  0.00  0.00    +0.000 A 
ATOM     28  C   UNL     1     112.570 130.597 141.761  0.00  0.00    +0.000 A 
ATOM     29  C   UNL     1     113.247 131.057 141.867  0.00  0.00    +0.000 A 
BRANCH  27  30
ATOM     30  O   UNL     1     114.583 131.399 141.492  0.00  0.00    +0.000 OA
ATOM     31  C   UNL     1     115.254 131.257 141.032  0.00  0.00    +0.000 C 
ENDBRANCH  27  30
ENDBRANCH  12  24
BRANCH   5  32
ATOM     32  O   UNL     1     112.927 127.728 137.544  0.00  0.00    +0.000 OA
BRANCH  32  39
ATOM     33  O   UNL     1     113.626 128.383 136.484  0.00  0.00    +0.000 OA
ATOM     34  O   UNL     1     111.505 127.930 136.731  0.00  0.00    +0.000 OA
ATOM     35  O   UNL     1     111.494 128.687 135.265  0.00  0.00    +0.000 OA
ATOM     36  O   UNL     1     112.904 129.241 134.612  0.00  0.00    +0.000 OA
ATOM     37  C   UNL     1     112.211 128.207 136.405  0.00  0.00    +0.000 C 
ATOM     38  C   UNL     1     112.205 128.586 135.671  0.00  0.00    +0.000 C 
ATOM     39  C   UNL     1     112.920 128.106 136.811  0.00  0.00    +0.000 C 
ATOM     40  C   UNL     1     112.910 128.863 135.345  0.00  0.00    +0.000 C 
ATOM     41  C   UNL     1     113.620 128.762 135.751  0.00  0.00    +0.000 C 
BRANCH  41  44
ATOM     42  O   UNL     1     114.540 129.830 135.520  0.00  0.00    +0.000 OA
ATOM     43  O   UNL     1     114.815 128.525 135.005  0.00  0.00    +0.000 OA
ATOM     44  C   UNL     1     114.325 129.038 135.425  0.00  0.00    +0.000 C 
ENDBRANCH  41  44
ENDBRANCH  32  39
ENDBRANCH   5  32
TORSDOF 6
ENDMDL
MODEL 6
REMARK VINA RESULT:     -10.1      1.566      3.363
REMARK  Name = 131833694
REMARK  6 active torsions:
REMARK  status: ('A' for Active; 'I' for Inactive)
REMARK    1  A    between atoms: O_2  and  C_20
REMARK    2  A    between atoms: O_2  and  C_26
REMARK    3  A    between atoms: O_15  and  C_41
REMARK    4  A    between atoms: C_19  and  C_24
REMARK    5  A    between atoms: C_23  and  C_31
REMARK    6  A    between atoms: C_37  and  C_38
REMARK                            x       y       z     vdW  Elec       q    Type
REMARK                         _______ _______ _______ _____ _____    ______ ____
ROOT
ATOM      1  O   UNL     1     110.525 127.378 137.474  0.00  0.00    +0.000 OA
ATOM      2  O   UNL     1     108.956 129.740 137.986  0.00  0.00    +0.000 OA
ATOM      3  O   UNL     1     112.629 128.740 137.835  0.00  0.00    +0.000 OA
ATOM      4  C   UNL     1     110.382 129.819 138.035  0.00  0.00    +0.000 A 
ATOM      5  C   UNL     1     111.120 129.458 137.968  0.00  0.00    +0.000 A 
ATOM      6  C   UNL     1     111.172 128.656 137.784  0.00  0.00    +0.000 A 
ATOM      7  C   UNL     1     109.695 129.378 137.918  0.00  0.00    +0.000 A 
ATOM      8  C   UNL     1     110.484 128.215 137.667  0.00  0.00    +0.000 A 
ATOM      9  C   UNL     1     109.746 128.576 137.734  0.00  0.00    +0.000 A 
ATOM     10  C   UNL     1     111.947 128.291 137.716  0.00  0.00    +0.000 A 
ATOM     11  C   UNL     1     112.006 127.455 137.524  0.00  0.00    +0.000 A 
ATOM     12  C   UNL     1     111.291 126.996 137.402  0.00  0.00    +0.000 A 
ENDROOT
BRANCH   4  17
ATOM     13  O   UNL     1     110.422 131.188 137.628  0.00  0.00    +0.000 OA
ATOM     14  O   UNL     1     110.097 130.292 139.591  0.00  0.00    +0.000 OA
ATOM     15  O   UNL     1     109.995 131.896 139.960  0.00  0.00    +0.000 OA
ATOM     16  O   UNL     1     110.178 133.029 138.775  0.00  0.00    +0.000 OA
ATOM     17  C   UNL     1     110.331 130.622 138.220  0.00  0.00    +0.000 C 
ATOM     18  C   UNL     1     110.188 130.858 138.998  0.00  0.00    +0.000 C 
ATOM     19  C   UNL     1     110.138 131.660 139.183  0.00  0.00    +0.000 C 
ATOM     20  C   UNL     1     110.371 131.991 137.812  0.00  0.00    +0.000 C 
ATOM     21  C   UNL     1     110.229 132.227 138.590  0.00  0.00    +0.000 C 
ATOM     22  C   UNL     1     110.463 132.558 137.220  0.00  0.00    +0.000 C 
ENDBRANCH   4  17
BRANCH  12  24
ATOM     23  O   UNL     1     111.482 123.785 136.664  0.00  0.00    +0.000 OA
ATOM     24  C   UNL     1     111.339 126.193 137.218  0.00  0.00    +0.000 A 
ATOM     25  C   UNL     1     111.091 125.924 136.478  0.00  0.00    +0.000 A 
ATOM     26  C   UNL     1     111.635 125.659 137.773  0.00  0.00    +0.000 A 
ATOM     27  C   UNL     1     111.139 125.122 136.294  0.00  0.00    +0.000 A 
ATOM     28  C   UNL     1     111.683 124.856 137.589  0.00  0.00    +0.000 A 
ATOM     29  C   UNL     1     111.435 124.588 136.849  0.00  0.00    +0.000 A 
BRANCH  27  30
ATOM     30  O   UNL     1     110.891 124.853 135.554  0.00  0.00    +0.000 OA
ATOM     31  C   UNL     1     110.437 125.344 135.069  0.00  0.00    +0.000 C 
ENDBRANCH  27  30
ENDBRANCH  12  24
BRANCH   5  32
ATOM     32  O   UNL     1     111.808 129.899 138.085  0.00  0.00    +0.000 OA
BRANCH  32  39
ATOM     33  O   UNL     1     112.703 130.024 139.192  0.00  0.00    +0.000 OA
ATOM     34  O   UNL     1     112.942 130.570 137.092  0.00  0.00    +0.000 OA
ATOM     35  O   UNL     1     114.405 131.030 137.703  0.00  0.00    +0.000 OA
ATOM     36  O   UNL     1     114.732 130.819 139.305  0.00  0.00    +0.000 OA
ATOM     37  C   UNL     1     113.106 130.464 137.894  0.00  0.00    +0.000 C 
ATOM     38  C   UNL     1     113.837 130.694 138.199  0.00  0.00    +0.000 C 
ATOM     39  C   UNL     1     112.539 130.129 138.389  0.00  0.00    +0.000 C 
ATOM     40  C   UNL     1     114.001 130.589 139.001  0.00  0.00    +0.000 C 
ATOM     41  C   UNL     1     113.434 130.254 139.496  0.00  0.00    +0.000 C 
BRANCH  41  44
ATOM     42  O   UNL     1     113.367 130.722 140.845  0.00  0.00    +0.000 OA
ATOM     43  O   UNL     1     113.991 129.470 140.553  0.00  0.00    +0.000 OA
ATOM     44  C   UNL     1     113.597 130.148 140.298  0.00  0.00    +0.000 C 
ENDBRANCH  41  44
ENDBRANCH  32  39
ENDBRANCH   5  32
TORSDOF 6
ENDMDL
MODEL 7
REMARK VINA RESULT:     -10.0      1.359      2.034
REMARK  Name = 131833694
REMARK  6 active torsions:
REMARK  status: ('A' for Active; 'I' for Inactive)
REMARK    1  A    between atoms: O_2  and  C_20
REMARK    2  A    between atoms: O_2  and  C_26
REMARK    3  A    between atoms: O_15  and  C_41
REMARK    4  A    between atoms: C_19  and  C_24
REMARK    5  A    between atoms: C_23  and  C_31
REMARK    6  A    between atoms: C_37  and  C_38
REMARK                            x       y       z     vdW  Elec       q    Type
REMARK                         _______ _______ _______ _____ _____    ______ ____
ROOT
ATOM      1  O   UNL     1     113.617 126.260 138.919  0.00  0.00    +0.000 OA
ATOM      2  O   UNL     1     113.837 127.328 141.587  0.00  0.00    +0.000 OA
ATOM      3  O   UNL     1     111.594 127.733 138.534  0.00  0.00    +0.000 OA
ATOM      4  C   UNL     1     112.788 127.785 140.731  0.00  0.00    +0.000 A 
ATOM      5  C   UNL     1     112.398 127.763 140.005  0.00  0.00    +0.000 A 
ATOM      6  C   UNL     1     112.667 127.264 139.406  0.00  0.00    +0.000 A 
ATOM      7  C   UNL     1     113.447 127.306 140.859  0.00  0.00    +0.000 A 
ATOM      8  C   UNL     1     113.327 126.785 139.535  0.00  0.00    +0.000 A 
ATOM      9  C   UNL     1     113.716 126.806 140.261  0.00  0.00    +0.000 A 
ATOM     10  C   UNL     1     112.252 127.251 138.654  0.00  0.00    +0.000 A 
ATOM     11  C   UNL     1     112.529 126.732 138.027  0.00  0.00    +0.000 A 
ATOM     12  C   UNL     1     113.215 126.233 138.160  0.00  0.00    +0.000 A 
ENDROOT
BRANCH   4  17
ATOM     13  O   UNL     1     112.770 129.069 141.357  0.00  0.00    +0.000 OA
ATOM     14  O   UNL     1     111.742 127.215 141.873  0.00  0.00    +0.000 OA
ATOM     15  O   UNL     1     111.202 128.214 143.069  0.00  0.00    +0.000 OA
ATOM     16  O   UNL     1     111.707 129.784 143.124  0.00  0.00    +0.000 OA
ATOM     17  C   UNL     1     112.517 128.285 141.330  0.00  0.00    +0.000 C 
ATOM     18  C   UNL     1     111.994 128.000 141.901  0.00  0.00    +0.000 C 
ATOM     19  C   UNL     1     111.724 128.499 142.499  0.00  0.00    +0.000 C 
ATOM     20  C   UNL     1     112.500 129.570 141.955  0.00  0.00    +0.000 C 
ATOM     21  C   UNL     1     111.977 129.284 142.526  0.00  0.00    +0.000 C 
ATOM     22  C   UNL     1     112.752 130.354 141.983  0.00  0.00    +0.000 C 
ENDBRANCH   4  17
BRANCH  12  24
ATOM     23  O   UNL     1     114.303 124.229 135.775  0.00  0.00    +0.000 OA
ATOM     24  C   UNL     1     113.487 125.732 137.564  0.00  0.00    +0.000 A 
ATOM     25  C   UNL     1     113.122 125.003 137.439  0.00  0.00    +0.000 A 
ATOM     26  C   UNL     1     114.125 125.961 137.092  0.00  0.00    +0.000 A 
ATOM     27  C   UNL     1     113.394 124.502 136.843  0.00  0.00    +0.000 A 
ATOM     28  C   UNL     1     114.397 125.460 136.496  0.00  0.00    +0.000 A 
ATOM     29  C   UNL     1     114.032 124.731 136.371  0.00  0.00    +0.000 A 
BRANCH  27  30
ATOM     30  O   UNL     1     113.029 123.773 136.719  0.00  0.00    +0.000 OA
ATOM     31  C   UNL     1     112.257 123.648 136.985  0.00  0.00    +0.000 C 
ENDBRANCH  27  30
ENDBRANCH  12  24
BRANCH   5  32
ATOM     32  O   UNL     1     111.738 128.242 139.876  0.00  0.00    +0.000 OA
BRANCH  32  39
ATOM     33  O   UNL     1     111.569 129.475 139.173  0.00  0.00    +0.000 OA
ATOM     34  O   UNL     1     110.101 128.033 139.901  0.00  0.00    +0.000 OA
ATOM     35  O   UNL     1     109.114 129.160 139.210  0.00  0.00    +0.000 OA
ATOM     36  O   UNL     1     109.764 130.496 138.495  0.00  0.00    +0.000 OA
ATOM     37  C   UNL     1     110.427 128.701 139.543  0.00  0.00    +0.000 C 
ATOM     38  C   UNL     1     109.933 129.265 139.198  0.00  0.00    +0.000 C 
ATOM     39  C   UNL     1     111.244 128.806 139.531  0.00  0.00    +0.000 C 
ATOM     40  C   UNL     1     110.258 129.933 138.840  0.00  0.00    +0.000 C 
ATOM     41  C   UNL     1     111.075 130.038 138.827  0.00  0.00    +0.000 C 
BRANCH  41  44
ATOM     42  O   UNL     1     111.549 131.383 138.919  0.00  0.00    +0.000 OA
ATOM     43  O   UNL     1     111.577 130.699 137.664  0.00  0.00    +0.000 OA
ATOM     44  C   UNL     1     111.400 130.706 138.470  0.00  0.00    +0.000 C 
ENDBRANCH  41  44
ENDBRANCH  32  39
ENDBRANCH   5  32
TORSDOF 6
ENDMDL
MODEL 8
REMARK VINA RESULT:     -10.0      2.035      4.009
REMARK  Name = 131833694
REMARK  6 active torsions:
REMARK  status: ('A' for Active; 'I' for Inactive)
REMARK    1  A    between atoms: O_2  and  C_20
REMARK    2  A    between atoms: O_2  and  C_26
REMARK    3  A    between atoms: O_15  and  C_41
REMARK    4  A    between atoms: C_19  and  C_24
REMARK    5  A    between atoms: C_23  and  C_31
REMARK    6  A    between atoms: C_37  and  C_38
REMARK                            x       y       z     vdW  Elec       q    Type
REMARK                         _______ _______ _______ _____ _____    ______ ____
ROOT
ATOM      1  O   UNL     1     112.798 127.256 136.505  0.00  0.00    +0.000 OA
ATOM      2  O   UNL     1     111.933 129.604 135.075  0.00  0.00    +0.000 OA
ATOM      3  O   UNL     1     111.266 127.898 138.416  0.00  0.00    +0.000 OA
ATOM      4  C   UNL     1     111.396 129.333 136.371  0.00  0.00    +0.000 A 
ATOM      5  C   UNL     1     111.357 128.856 137.043  0.00  0.00    +0.000 A 
ATOM      6  C   UNL     1     111.816 128.172 137.092  0.00  0.00    +0.000 A 
ATOM      7  C   UNL     1     111.895 129.126 135.748  0.00  0.00    +0.000 A 
ATOM      8  C   UNL     1     112.315 127.966 136.467  0.00  0.00    +0.000 A 
ATOM      9  C   UNL     1     112.354 128.443 135.795  0.00  0.00    +0.000 A 
ATOM     10  C   UNL     1     111.767 127.684 137.797  0.00  0.00    +0.000 A 
ATOM     11  C   UNL     1     112.243 126.970 137.852  0.00  0.00    +0.000 A 
ATOM     12  C   UNL     1     112.762 126.755 137.202  0.00  0.00    +0.000 A 
ENDROOT
BRANCH   4  17
ATOM     13  O   UNL     1     111.210 130.721 136.653  0.00  0.00    +0.000 OA
ATOM     14  O   UNL     1     109.929 129.289 135.618  0.00  0.00    +0.000 OA
ATOM     15  O   UNL     1     109.010 130.656 135.523  0.00  0.00    +0.000 OA
ATOM     16  O   UNL     1     109.557 132.066 136.181  0.00  0.00    +0.000 OA
ATOM     17  C   UNL     1     110.936 130.017 136.324  0.00  0.00    +0.000 C 
ATOM     18  C   UNL     1     110.202 129.995 135.947  0.00  0.00    +0.000 C 
ATOM     19  C   UNL     1     109.743 130.678 135.899  0.00  0.00    +0.000 C 
ATOM     20  C   UNL     1     110.750 131.405 136.606  0.00  0.00    +0.000 C 
ATOM     21  C   UNL     1     110.016 131.383 136.228  0.00  0.00    +0.000 C 
ATOM     22  C   UNL     1     111.024 132.110 136.935  0.00  0.00    +0.000 C 
ENDBRANCH   4  17
BRANCH  12  24
ATOM     23  O   UNL     1     114.604 124.023 137.381  0.00  0.00    +0.000 OA
ATOM     24  C   UNL     1     113.223 126.072 137.247  0.00  0.00    +0.000 A 
ATOM     25  C   UNL     1     112.954 125.370 136.907  0.00  0.00    +0.000 A 
ATOM     26  C   UNL     1     113.952 126.091 137.632  0.00  0.00    +0.000 A 
ATOM     27  C   UNL     1     113.415 124.687 136.952  0.00  0.00    +0.000 A 
ATOM     28  C   UNL     1     114.413 125.408 137.677  0.00  0.00    +0.000 A 
ATOM     29  C   UNL     1     114.144 124.706 137.337  0.00  0.00    +0.000 A 
BRANCH  27  30
ATOM     30  O   UNL     1     113.145 123.986 136.611  0.00  0.00    +0.000 OA
ATOM     31  C   UNL     1     112.341 123.802 136.626  0.00  0.00    +0.000 C 
ENDBRANCH  27  30
ENDBRANCH  12  24
BRANCH   5  32
ATOM     32  O   UNL     1     110.859 129.062 137.668  0.00  0.00    +0.000 OA
BRANCH  32  39
ATOM     33  O   UNL     1     111.115 129.673 138.934  0.00  0.00    +0.000 OA
ATOM     34  O   UNL     1     109.354 128.623 138.184  0.00  0.00    +0.000 OA
ATOM     35  O   UNL     1     108.859 129.014 139.709  0.00  0.00    +0.000 OA
ATOM     36  O   UNL     1     109.867 129.844 140.716  0.00  0.00    +0.000 OA
ATOM     37  C   UNL     1     109.859 129.038 138.688  0.00  0.00    +0.000 C 
ATOM     38  C   UNL     1     109.611 129.234 139.451  0.00  0.00    +0.000 C 
ATOM     39  C   UNL     1     110.610 129.257 138.430  0.00  0.00    +0.000 C 
ATOM     40  C   UNL     1     110.115 129.649 139.954  0.00  0.00    +0.000 C 
ATOM     41  C   UNL     1     110.867 129.868 139.696  0.00  0.00    +0.000 C 
BRANCH  41  44
ATOM     42  O   UNL     1     111.373 131.109 140.192  0.00  0.00    +0.000 OA
ATOM     43  O   UNL     1     111.874 129.874 140.710  0.00  0.00    +0.000 OA
ATOM     44  C   UNL     1     111.371 130.283 140.200  0.00  0.00    +0.000 C 
ENDBRANCH  41  44
ENDBRANCH  32  39
ENDBRANCH   5  32
TORSDOF 6
ENDMDL
MODEL 9
REMARK VINA RESULT:     -10.0      8.226      9.894
REMARK  Name = 131833694
REMARK  6 active torsions:
REMARK  status: ('A' for Active; 'I' for Inactive)
REMARK    1  A    between atoms: O_2  and  C_20
REMARK    2  A    between atoms: O_2  and  C_26
REMARK    3  A    between atoms: O_15  and  C_41
REMARK    4  A    between atoms: C_19  and  C_24
REMARK    5  A    between atoms: C_23  and  C_31
REMARK    6  A    between atoms: C_37  and  C_38
REMARK                            x       y       z     vdW  Elec       q    Type
REMARK                         _______ _______ _______ _____ _____    ______ ____
ROOT
ATOM      1  O   UNL     1     106.472 125.376 146.165  0.00  0.00    +0.000 OA
ATOM      2  O   UNL     1     105.656 125.572 143.408  0.00  0.00    +0.000 OA
ATOM      3  O   UNL     1     106.990 127.855 146.151  0.00  0.00    +0.000 OA
ATOM      4  C   UNL     1     106.115 126.741 144.090  0.00  0.00    +0.000 A 
ATOM      5  C   UNL     1     106.403 127.103 144.772  0.00  0.00    +0.000 A 
ATOM      6  C   UNL     1     106.522 126.658 145.457  0.00  0.00    +0.000 A 
ATOM      7  C   UNL     1     105.945 125.934 144.091  0.00  0.00    +0.000 A 
ATOM      8  C   UNL     1     106.352 125.851 145.458  0.00  0.00    +0.000 A 
ATOM      9  C   UNL     1     106.064 125.489 144.775  0.00  0.00    +0.000 A 
ATOM     10  C   UNL     1     106.823 127.047 146.161  0.00  0.00    +0.000 A 
ATOM     11  C   UNL     1     106.949 126.588 146.878  0.00  0.00    +0.000 A 
ATOM     12  C   UNL     1     106.772 125.747 146.879  0.00  0.00    +0.000 A 
ENDROOT
BRANCH   4  17
ATOM     13  O   UNL     1     105.309 127.633 143.318  0.00  0.00    +0.000 OA
ATOM     14  O   UNL     1     107.254 126.738 142.896  0.00  0.00    +0.000 OA
ATOM     15  O   UNL     1     107.018 127.629 141.528  0.00  0.00    +0.000 OA
ATOM     16  O   UNL     1     105.642 128.523 141.353  0.00  0.00    +0.000 OA
ATOM     17  C   UNL     1     105.996 127.187 143.405  0.00  0.00    +0.000 C 
ATOM     18  C   UNL     1     106.566 127.185 142.808  0.00  0.00    +0.000 C 
ATOM     19  C   UNL     1     106.448 127.631 142.124  0.00  0.00    +0.000 C 
ATOM     20  C   UNL     1     105.190 128.079 142.633  0.00  0.00    +0.000 C 
ATOM     21  C   UNL     1     105.761 128.078 142.037  0.00  0.00    +0.000 C 
ATOM     22  C   UNL     1     104.503 128.526 142.546  0.00  0.00    +0.000 C 
ENDBRANCH   4  17
BRANCH  12  24
ATOM     23  O   UNL     1     107.242 123.955 149.610  0.00  0.00    +0.000 OA
ATOM     24  C   UNL     1     106.889 125.299 147.562  0.00  0.00    +0.000 A 
ATOM     25  C   UNL     1     106.241 125.030 147.995  0.00  0.00    +0.000 A 
ATOM     26  C   UNL     1     107.656 125.121 147.811  0.00  0.00    +0.000 A 
ATOM     27  C   UNL     1     106.359 124.582 148.678  0.00  0.00    +0.000 A 
ATOM     28  C   UNL     1     107.774 124.673 148.494  0.00  0.00    +0.000 A 
ATOM     29  C   UNL     1     107.125 124.403 148.927  0.00  0.00    +0.000 A 
BRANCH  27  30
ATOM     30  O   UNL     1     105.710 124.312 149.111  0.00  0.00    +0.000 OA
ATOM     31  C   UNL     1     105.041 124.789 149.189  0.00  0.00    +0.000 C 
ENDBRANCH  27  30
ENDBRANCH  12  24
BRANCH   5  32
ATOM     32  O   UNL     1     106.573 127.911 144.771  0.00  0.00    +0.000 OA
BRANCH  32  39
ATOM     33  O   UNL     1     107.798 128.639 144.656  0.00  0.00    +0.000 OA
ATOM     34  O   UNL     1     105.818 129.268 145.327  0.00  0.00    +0.000 OA
ATOM     35  O   UNL     1     106.665 130.675 145.490  0.00  0.00    +0.000 OA
ATOM     36  O   UNL     1     108.266 130.724 145.097  0.00  0.00    +0.000 OA
ATOM     37  C   UNL     1     106.619 129.292 145.131  0.00  0.00    +0.000 C 
ATOM     38  C   UNL     1     107.042 129.996 145.212  0.00  0.00    +0.000 C 
ATOM     39  C   UNL     1     106.996 128.614 144.853  0.00  0.00    +0.000 C 
ATOM     40  C   UNL     1     107.843 130.020 145.016  0.00  0.00    +0.000 C 
ATOM     41  C   UNL     1     108.220 129.342 144.738  0.00  0.00    +0.000 C 
BRANCH  41  44
ATOM     42  O   UNL     1     109.250 129.490 143.758  0.00  0.00    +0.000 OA
ATOM     43  O   UNL     1     109.593 129.266 145.128  0.00  0.00    +0.000 OA
ATOM     44  C   UNL     1     109.021 129.366 144.542  0.00  0.00    +0.000 C 
ENDBRANCH  41  44
ENDBRANCH  32  39
ENDBRANCH   5  32
TORSDOF 6
ENDMDL
MODEL 10
REMARK VINA RESULT:      -9.8      2.032      5.637
REMARK  Name = 131833694
REMARK  6 active torsions:
REMARK  status: ('A' for Active; 'I' for Inactive)
REMARK    1  A    between atoms: O_2  and  C_20
REMARK    2  A    between atoms: O_2  and  C_26
REMARK    3  A    between atoms: O_15  and  C_41
REMARK    4  A    between atoms: C_19  and  C_24
REMARK    5  A    between atoms: C_23  and  C_31
REMARK    6  A    between atoms: C_37  and  C_38
REMARK                            x       y       z     vdW  Elec       q    Type
REMARK                         _______ _______ _______ _____ _____    ______ ____
ROOT
ATOM      1  O   UNL     1     111.943 129.649 136.554  0.00  0.00    +0.000 OA
ATOM      2  O   UNL     1     113.594 127.448 135.697  0.00  0.00    +0.000 OA
ATOM      3  O   UNL     1     111.124 128.235 138.488  0.00  0.00    +0.000 OA
ATOM      4  C   UNL     1     112.779 127.303 136.861  0.00  0.00    +0.000 A 
ATOM      5  C   UNL     1     112.233 127.615 137.395  0.00  0.00    +0.000 A 
ATOM      6  C   UNL     1     111.956 128.386 137.298  0.00  0.00    +0.000 A 
ATOM      7  C   UNL     1     113.048 127.761 136.230  0.00  0.00    +0.000 A 
ATOM      8  C   UNL     1     112.225 128.844 136.666  0.00  0.00    +0.000 A 
ATOM      9  C   UNL     1     112.771 128.532 136.133  0.00  0.00    +0.000 A 
ATOM     10  C   UNL     1     111.387 128.700 137.860  0.00  0.00    +0.000 A 
ATOM     11  C   UNL     1     111.095 129.503 137.763  0.00  0.00    +0.000 A 
ATOM     12  C   UNL     1     111.375 129.980 137.106  0.00  0.00    +0.000 A 
ENDROOT
BRANCH   4  17
ATOM     13  O   UNL     1     113.695 126.384 137.458  0.00  0.00    +0.000 OA
ATOM     14  O   UNL     1     112.052 126.057 136.059  0.00  0.00    +0.000 OA
ATOM     15  O   UNL     1     112.605 124.516 136.255  0.00  0.00    +0.000 OA
ATOM     16  O   UNL     1     113.885 124.218 137.252  0.00  0.00    +0.000 OA
ATOM     17  C   UNL     1     113.056 126.531 136.959  0.00  0.00    +0.000 C 
ATOM     18  C   UNL     1     112.692 125.909 136.558  0.00  0.00    +0.000 C 
ATOM     19  C   UNL     1     112.969 125.138 136.656  0.00  0.00    +0.000 C 
ATOM     20  C   UNL     1     113.973 125.612 137.556  0.00  0.00    +0.000 C 
ATOM     21  C   UNL     1     113.609 124.989 137.155  0.00  0.00    +0.000 C 
ATOM     22  C   UNL     1     114.612 125.463 138.055  0.00  0.00    +0.000 C 
ENDBRANCH   4  17
BRANCH  12  24
ATOM     23  O   UNL     1     110.273 133.065 136.704  0.00  0.00    +0.000 OA
ATOM     24  C   UNL     1     111.100 130.751 137.006  0.00  0.00    +0.000 A 
ATOM     25  C   UNL     1     110.418 130.892 136.562  0.00  0.00    +0.000 A 
ATOM     26  C   UNL     1     111.506 131.382 137.349  0.00  0.00    +0.000 A 
ATOM     27  C   UNL     1     110.143 131.663 136.462  0.00  0.00    +0.000 A 
ATOM     28  C   UNL     1     111.231 132.154 137.248  0.00  0.00    +0.000 A 
ATOM     29  C   UNL     1     110.549 132.294 136.805  0.00  0.00    +0.000 A 
BRANCH  27  30
ATOM     30  O   UNL     1     109.461 131.803 136.019  0.00  0.00    +0.000 OA
ATOM     31  C   UNL     1     109.317 131.363 135.335  0.00  0.00    +0.000 C 
ENDBRANCH  27  30
ENDBRANCH  12  24
BRANCH   5  32
ATOM     32  O   UNL     1     111.964 127.157 138.026  0.00  0.00    +0.000 OA
BRANCH  32  39
ATOM     33  O   UNL     1     112.302 127.153 139.415  0.00  0.00    +0.000 OA
ATOM     34  O   UNL     1     110.639 126.228 138.346  0.00  0.00    +0.000 OA
ATOM     35  O   UNL     1     110.314 125.759 139.895  0.00  0.00    +0.000 OA
ATOM     36  O   UNL     1     111.315 126.220 141.122  0.00  0.00    +0.000 OA
ATOM     37  C   UNL     1     111.139 126.459 138.960  0.00  0.00    +0.000 C 
ATOM     38  C   UNL     1     110.977 126.224 139.735  0.00  0.00    +0.000 C 
ATOM     39  C   UNL     1     111.801 126.923 138.800  0.00  0.00    +0.000 C 
ATOM     40  C   UNL     1     111.478 126.455 140.348  0.00  0.00    +0.000 C 
ATOM     41  C   UNL     1     112.139 126.919 140.189  0.00  0.00    +0.000 C 
BRANCH  41  44
ATOM     42  O   UNL     1     113.319 126.710 140.967  0.00  0.00    +0.000 OA
ATOM     43  O   UNL     1     112.463 127.819 141.250  0.00  0.00    +0.000 OA
ATOM     44  C   UNL     1     112.640 127.149 140.802  0.00  0.00    +0.000 C 
ENDBRANCH  41  44
ENDBRANCH  32  39
ENDBRANCH   5  32
TORSDOF 6
ENDMDL
