MODEL 1
REMARK VINA RESULT:     -10.2      0.000      0.000
REMARK  Name = 74978259
REMARK  7 active torsions:
REMARK  status: ('A' for Active; 'I' for Inactive)
REMARK    1  A    between atoms: O_3  and  C_23
REMARK    2  A    between atoms: O_3  and  C_29
REMARK    3  A    between atoms: O_7  and  C_26
REMARK    4  A    between atoms: O_7  and  C_30
REMARK    5  A    between atoms: O_13  and  C_34
REMARK    6  A    between atoms: C_20  and  C_27
REMARK    7  A    between atoms: C_31  and  C_32
REMARK                            x       y       z     vdW  Elec       q    Type
REMARK                         _______ _______ _______ _____ _____    ______ ____
ROOT
ATOM      1  O   UNL     1     110.979 128.905 138.617  0.00  0.00    +0.000 OA
ATOM      2  O   UNL     1     112.178 131.046 138.944  0.00  0.00    +0.000 OA
ATOM      3  O   UNL     1     110.951 131.789 138.789  0.00  0.00    +0.000 OA
ATOM      4  O   UNL     1     108.465 130.338 138.293  0.00  0.00    +0.000 OA
ATOM      5  C   UNL     1     112.193 129.620 138.860  0.00  0.00    +0.000 A 
ATOM      6  C   UNL     1     111.794 128.906 138.751  0.00  0.00    +0.000 A 
ATOM      7  C   UNL     1     111.779 130.332 138.836  0.00  0.00    +0.000 A 
ATOM      8  C   UNL     1     110.964 130.331 138.702  0.00  0.00    +0.000 A 
ATOM      9  C   UNL     1     110.565 129.618 138.593  0.00  0.00    +0.000 A 
ATOM     10  C   UNL     1     110.543 131.080 138.679  0.00  0.00    +0.000 A 
ATOM     11  C   UNL     1     109.717 129.603 138.453  0.00  0.00    +0.000 A 
ATOM     12  C   UNL     1     109.695 131.085 138.540  0.00  0.00    +0.000 A 
ATOM     13  C   UNL     1     109.279 130.342 138.427  0.00  0.00    +0.000 A 
ENDROOT
BRANCH   6  15
ATOM     14  C   UNL     1     113.038 126.768 138.824  0.00  0.00    +0.000 A 
ATOM     15  C   UNL     1     112.209 128.193 138.775  0.00  0.00    +0.000 A 
ATOM     16  C   UNL     1     112.518 126.963 139.433  0.00  0.00    +0.000 A 
ATOM     17  C   UNL     1     113.144 127.285 138.190  0.00  0.00    +0.000 A 
ATOM     18  C   UNL     1     112.103 127.675 139.409  0.00  0.00    +0.000 A 
ATOM     19  C   UNL     1     112.729 127.998 138.166  0.00  0.00    +0.000 A 
BRANCH  16  20
ATOM     20  O   UNL     1     112.413 126.445 140.067  0.00  0.00    +0.000 OA
ATOM     21  C   UNL     1     111.870 126.627 140.663  0.00  0.00    +0.000 C 
ENDBRANCH  16  20
BRANCH  14  22
ATOM     22  O   UNL     1     113.453 126.054 138.848  0.00  0.00    +0.000 OA
BRANCH  22  31
ATOM     23  O   UNL     1     112.799 125.363 137.782  0.00  0.00    +0.000 OA
ATOM     24  O   UNL     1     114.991 124.569 136.952  0.00  0.00    +0.000 OA
ATOM     25  O   UNL     1     113.606 124.143 136.163  0.00  0.00    +0.000 OA
ATOM     26  O   UNL     1     114.914 125.525 138.295  0.00  0.00    +0.000 OA
ATOM     27  C   UNL     1     114.261 124.834 137.229  0.00  0.00    +0.000 C 
ATOM     28  C   UNL     1     113.568 124.621 136.835  0.00  0.00    +0.000 C 
ATOM     29  C   UNL     1     114.222 125.312 137.900  0.00  0.00    +0.000 C 
ATOM     30  C   UNL     1     112.837 124.885 137.111  0.00  0.00    +0.000 C 
ATOM     31  C   UNL     1     113.491 125.577 138.177  0.00  0.00    +0.000 C 
ATOM     32  C   UNL     1     112.144 124.672 136.717  0.00  0.00    +0.000 C 
ENDBRANCH  22  31
ENDBRANCH  14  22
ENDBRANCH   6  15
BRANCH   5  33
ATOM     33  O   UNL     1     113.007 129.621 138.993  0.00  0.00    +0.000 OA
BRANCH  33  42
ATOM     34  O   UNL     1     112.915 129.936 140.384  0.00  0.00    +0.000 OA
ATOM     35  O   UNL     1     115.038 131.200 140.238  0.00  0.00    +0.000 OA
ATOM     36  O   UNL     1     114.239 131.094 141.676  0.00  0.00    +0.000 OA
ATOM     37  O   UNL     1     114.423 130.463 138.896  0.00  0.00    +0.000 OA
ATOM     38  C   UNL     1     114.331 130.779 140.287  0.00  0.00    +0.000 C 
ATOM     39  C   UNL     1     113.930 130.725 141.006  0.00  0.00    +0.000 C 
ATOM     40  C   UNL     1     114.022 130.410 139.615  0.00  0.00    +0.000 C 
ATOM     41  C   UNL     1     113.224 130.304 141.055  0.00  0.00    +0.000 C 
ATOM     42  C   UNL     1     113.316 129.989 139.664  0.00  0.00    +0.000 C 
BRANCH  41  44
ATOM     43  O   UNL     1     112.732 129.517 142.141  0.00  0.00    +0.000 OA
ATOM     44  C   UNL     1     112.823 130.251 141.774  0.00  0.00    +0.000 C 
ENDBRANCH  41  44
ENDBRANCH  33  42
ENDBRANCH   5  33
TORSDOF 7
ENDMDL
MODEL 2
REMARK VINA RESULT:     -10.1      2.596      6.281
REMARK  Name = 74978259
REMARK  7 active torsions:
REMARK  status: ('A' for Active; 'I' for Inactive)
REMARK    1  A    between atoms: O_3  and  C_23
REMARK    2  A    between atoms: O_3  and  C_29
REMARK    3  A    between atoms: O_7  and  C_26
REMARK    4  A    between atoms: O_7  and  C_30
REMARK    5  A    between atoms: O_13  and  C_34
REMARK    6  A    between atoms: C_20  and  C_27
REMARK    7  A    between atoms: C_31  and  C_32
REMARK                            x       y       z     vdW  Elec       q    Type
REMARK                         _______ _______ _______ _____ _____    ______ ____
ROOT
ATOM      1  O   UNL     1     113.517 126.766 136.840  0.00  0.00    +0.000 OA
ATOM      2  O   UNL     1     111.714 125.390 135.845  0.00  0.00    +0.000 OA
ATOM      3  O   UNL     1     112.400 124.175 136.212  0.00  0.00    +0.000 OA
ATOM      4  O   UNL     1     114.958 124.356 137.612  0.00  0.00    +0.000 OA
ATOM      5  C   UNL     1     112.265 126.672 136.155  0.00  0.00    +0.000 A 
ATOM      6  C   UNL     1     112.865 127.131 136.486  0.00  0.00    +0.000 A 
ATOM      7  C   UNL     1     112.315 125.849 136.177  0.00  0.00    +0.000 A 
ATOM      8  C   UNL     1     112.966 125.484 136.530  0.00  0.00    +0.000 A 
ATOM      9  C   UNL     1     113.566 125.943 136.861  0.00  0.00    +0.000 A 
ATOM     10  C   UNL     1     113.006 124.626 136.546  0.00  0.00    +0.000 A 
ATOM     11  C   UNL     1     114.248 125.575 137.232  0.00  0.00    +0.000 A 
ATOM     12  C   UNL     1     113.681 124.241 136.913  0.00  0.00    +0.000 A 
ATOM     13  C   UNL     1     114.306 124.718 137.258  0.00  0.00    +0.000 A 
ENDROOT
BRANCH   6  15
ATOM     14  C   UNL     1     112.716 129.600 136.422  0.00  0.00    +0.000 A 
ATOM     15  C   UNL     1     112.816 127.954 136.465  0.00  0.00    +0.000 A 
ATOM     16  C   UNL     1     112.984 129.186 135.761  0.00  0.00    +0.000 A 
ATOM     17  C   UNL     1     112.499 129.192 137.105  0.00  0.00    +0.000 A 
ATOM     18  C   UNL     1     113.034 128.363 135.782  0.00  0.00    +0.000 A 
ATOM     19  C   UNL     1     112.548 128.368 137.126  0.00  0.00    +0.000 A 
BRANCH  16  20
ATOM     20  O   UNL     1     113.202 129.595 135.078  0.00  0.00    +0.000 OA
ATOM     21  C   UNL     1     113.870 129.361 134.652  0.00  0.00    +0.000 C 
ENDBRANCH  16  20
BRANCH  14  22
ATOM     22  O   UNL     1     112.667 130.424 136.401  0.00  0.00    +0.000 OA
BRANCH  22  31
ATOM     23  O   UNL     1     111.250 130.516 136.241  0.00  0.00    +0.000 OA
ATOM     24  O   UNL     1     111.210 132.488 137.735  0.00  0.00    +0.000 OA
ATOM     25  O   UNL     1     109.806 131.922 137.077  0.00  0.00    +0.000 OA
ATOM     26  O   UNL     1     112.641 131.739 137.397  0.00  0.00    +0.000 OA
ATOM     27  C   UNL     1     111.223 131.831 137.237  0.00  0.00    +0.000 C 
ATOM     28  C   UNL     1     110.522 131.548 136.908  0.00  0.00    +0.000 C 
ATOM     29  C   UNL     1     111.939 131.456 137.068  0.00  0.00    +0.000 C 
ATOM     30  C   UNL     1     110.535 130.891 136.410  0.00  0.00    +0.000 C 
ATOM     31  C   UNL     1     111.952 130.798 136.570  0.00  0.00    +0.000 C 
ATOM     32  C   UNL     1     109.834 130.607 136.081  0.00  0.00    +0.000 C 
ENDBRANCH  22  31
ENDBRANCH  14  22
ENDBRANCH   6  15
BRANCH   5  33
ATOM     33  O   UNL     1     111.615 127.037 135.802  0.00  0.00    +0.000 OA
BRANCH  33  42
ATOM     34  O   UNL     1     110.743 126.760 136.900  0.00  0.00    +0.000 OA
ATOM     35  O   UNL     1     108.804 126.769 135.362  0.00  0.00    +0.000 OA
ATOM     36  O   UNL     1     108.579 126.489 136.972  0.00  0.00    +0.000 OA
ATOM     37  O   UNL     1     110.322 127.043 134.777  0.00  0.00    +0.000 OA
ATOM     38  C   UNL     1     109.450 126.766 135.875  0.00  0.00    +0.000 C 
ATOM     39  C   UNL     1     109.338 126.626 136.680  0.00  0.00    +0.000 C 
ATOM     40  C   UNL     1     110.210 126.903 135.582  0.00  0.00    +0.000 C 
ATOM     41  C   UNL     1     109.984 126.623 137.192  0.00  0.00    +0.000 C 
ATOM     42  C   UNL     1     110.856 126.900 136.094  0.00  0.00    +0.000 C 
BRANCH  41  44
ATOM     43  O   UNL     1     110.010 127.087 138.543  0.00  0.00    +0.000 OA
ATOM     44  C   UNL     1     109.872 126.483 137.997  0.00  0.00    +0.000 C 
ENDBRANCH  41  44
ENDBRANCH  33  42
ENDBRANCH   5  33
TORSDOF 7
ENDMDL
MODEL 3
REMARK VINA RESULT:     -10.1      1.851      3.860
REMARK  Name = 74978259
REMARK  7 active torsions:
REMARK  status: ('A' for Active; 'I' for Inactive)
REMARK    1  A    between atoms: O_3  and  C_23
REMARK    2  A    between atoms: O_3  and  C_29
REMARK    3  A    between atoms: O_7  and  C_26
REMARK    4  A    between atoms: O_7  and  C_30
REMARK    5  A    between atoms: O_13  and  C_34
REMARK    6  A    between atoms: C_20  and  C_27
REMARK    7  A    between atoms: C_31  and  C_32
REMARK                            x       y       z     vdW  Elec       q    Type
REMARK                         _______ _______ _______ _____ _____    ______ ____
ROOT
ATOM      1  O   UNL     1     111.371 129.439 139.286  0.00  0.00    +0.000 OA
ATOM      2  O   UNL     1     109.012 129.078 138.626  0.00  0.00    +0.000 OA
ATOM      3  O   UNL     1     108.581 130.171 139.464  0.00  0.00    +0.000 OA
ATOM      4  O   UNL     1     110.574 131.656 140.999  0.00  0.00    +0.000 OA
ATOM      5  C   UNL     1     110.391 128.715 138.537  0.00  0.00    +0.000 A 
ATOM      6  C   UNL     1     111.178 128.835 138.757  0.00  0.00    +0.000 A 
ATOM      7  C   UNL     1     109.798 129.198 138.846  0.00  0.00    +0.000 A 
ATOM      8  C   UNL     1     109.991 129.802 139.375  0.00  0.00    +0.000 A 
ATOM      9  C   UNL     1     110.777 129.922 139.595  0.00  0.00    +0.000 A 
ATOM     10  C   UNL     1     109.364 130.298 139.690  0.00  0.00    +0.000 A 
ATOM     11  C   UNL     1     110.991 130.546 140.144  0.00  0.00    +0.000 A 
ATOM     12  C   UNL     1     109.559 130.928 140.241  0.00  0.00    +0.000 A 
ATOM     13  C   UNL     1     110.378 131.053 140.470  0.00  0.00    +0.000 A 
ENDROOT
BRANCH   6  15
ATOM     14  C   UNL     1     112.957 127.386 137.831  0.00  0.00    +0.000 A 
ATOM     15  C   UNL     1     111.770 128.352 138.448  0.00  0.00    +0.000 A 
ATOM     16  C   UNL     1     112.875 128.161 137.562  0.00  0.00    +0.000 A 
ATOM     17  C   UNL     1     112.446 127.093 138.409  0.00  0.00    +0.000 A 
ATOM     18  C   UNL     1     112.282 128.644 137.870  0.00  0.00    +0.000 A 
ATOM     19  C   UNL     1     111.853 127.577 138.718  0.00  0.00    +0.000 A 
BRANCH  16  20
ATOM     20  O   UNL     1     113.386 128.453 136.983  0.00  0.00    +0.000 OA
ATOM     21  C   UNL     1     113.531 129.264 136.933  0.00  0.00    +0.000 C 
ENDBRANCH  16  20
BRANCH  14  22
ATOM     22  O   UNL     1     113.550 126.902 137.522  0.00  0.00    +0.000 OA
BRANCH  22  31
ATOM     23  O   UNL     1     112.701 126.020 136.787  0.00  0.00    +0.000 OA
ATOM     24  O   UNL     1     114.152 124.111 137.401  0.00  0.00    +0.000 OA
ATOM     25  O   UNL     1     112.819 123.866 136.460  0.00  0.00    +0.000 OA
ATOM     26  O   UNL     1     114.518 125.630 137.932  0.00  0.00    +0.000 OA
ATOM     27  C   UNL     1     113.669 124.747 137.196  0.00  0.00    +0.000 C 
ATOM     28  C   UNL     1     113.002 124.625 136.726  0.00  0.00    +0.000 C 
ATOM     29  C   UNL     1     113.852 125.506 137.462  0.00  0.00    +0.000 C 
ATOM     30  C   UNL     1     112.518 125.261 136.521  0.00  0.00    +0.000 C 
ATOM     31  C   UNL     1     113.368 126.143 137.257  0.00  0.00    +0.000 C 
ATOM     32  C   UNL     1     111.851 125.138 136.051  0.00  0.00    +0.000 C 
ENDBRANCH  22  31
ENDBRANCH  14  22
ENDBRANCH   6  15
BRANCH   5  33
ATOM     33  O   UNL     1     110.198 128.112 138.009  0.00  0.00    +0.000 OA
BRANCH  33  42
ATOM     34  O   UNL     1     109.964 129.006 136.918  0.00  0.00    +0.000 OA
ATOM     35  O   UNL     1     108.352 127.398 135.947  0.00  0.00    +0.000 OA
ATOM     36  O   UNL     1     108.655 128.827 135.181  0.00  0.00    +0.000 OA
ATOM     37  O   UNL     1     109.124 127.040 137.361  0.00  0.00    +0.000 OA
ATOM     38  C   UNL     1     108.889 127.934 136.271  0.00  0.00    +0.000 C 
ATOM     39  C   UNL     1     109.041 128.648 135.888  0.00  0.00    +0.000 C 
ATOM     40  C   UNL     1     109.276 127.755 136.978  0.00  0.00    +0.000 C 
ATOM     41  C   UNL     1     109.578 129.184 136.212  0.00  0.00    +0.000 C 
ATOM     42  C   UNL     1     109.812 128.290 137.302  0.00  0.00    +0.000 C 
BRANCH  41  44
ATOM     43  O   UNL     1     110.476 130.043 135.507  0.00  0.00    +0.000 OA
ATOM     44  C   UNL     1     109.729 129.899 135.829  0.00  0.00    +0.000 C 
ENDBRANCH  41  44
ENDBRANCH  33  42
ENDBRANCH   5  33
TORSDOF 7
ENDMDL
MODEL 4
REMARK VINA RESULT:     -10.0      2.073      5.435
REMARK  Name = 74978259
REMARK  7 active torsions:
REMARK  status: ('A' for Active; 'I' for Inactive)
REMARK    1  A    between atoms: O_3  and  C_23
REMARK    2  A    between atoms: O_3  and  C_29
REMARK    3  A    between atoms: O_7  and  C_26
REMARK    4  A    between atoms: O_7  and  C_30
REMARK    5  A    between atoms: O_13  and  C_34
REMARK    6  A    between atoms: C_20  and  C_27
REMARK    7  A    between atoms: C_31  and  C_32
REMARK                            x       y       z     vdW  Elec       q    Type
REMARK                         _______ _______ _______ _____ _____    ______ ____
ROOT
ATOM      1  O   UNL     1     111.606 126.796 136.715  0.00  0.00    +0.000 OA
ATOM      2  O   UNL     1     113.791 127.903 136.354  0.00  0.00    +0.000 OA
ATOM      3  O   UNL     1     114.472 126.632 136.378  0.00  0.00    +0.000 OA
ATOM      4  O   UNL     1     112.913 124.194 136.775  0.00  0.00    +0.000 OA
ATOM      5  C   UNL     1     112.374 127.986 136.520  0.00  0.00    +0.000 A 
ATOM      6  C   UNL     1     111.646 127.617 136.641  0.00  0.00    +0.000 A 
ATOM      7  C   UNL     1     113.062 127.535 136.474  0.00  0.00    +0.000 A 
ATOM      8  C   UNL     1     113.023 126.713 136.548  0.00  0.00    +0.000 A 
ATOM      9  C   UNL     1     112.296 126.345 136.669  0.00  0.00    +0.000 A 
ATOM     10  C   UNL     1     113.748 126.254 136.498  0.00  0.00    +0.000 A 
ATOM     11  C   UNL     1     112.241 125.491 136.748  0.00  0.00    +0.000 A 
ATOM     12  C   UNL     1     113.713 125.399 136.575  0.00  0.00    +0.000 A 
ATOM     13  C   UNL     1     112.955 125.014 136.701  0.00  0.00    +0.000 A 
ENDROOT
BRANCH   6  15
ATOM     14  C   UNL     1     109.579 128.972 136.779  0.00  0.00    +0.000 A 
ATOM     15  C   UNL     1     110.957 128.069 136.687  0.00  0.00    +0.000 A 
ATOM     16  C   UNL     1     109.878 128.605 137.455  0.00  0.00    +0.000 A 
ATOM     17  C   UNL     1     109.969 128.887 136.057  0.00  0.00    +0.000 A 
ATOM     18  C   UNL     1     110.567 128.154 137.409  0.00  0.00    +0.000 A 
ATOM     19  C   UNL     1     110.658 128.435 136.011  0.00  0.00    +0.000 A 
BRANCH  16  20
ATOM     20  O   UNL     1     109.488 128.691 138.177  0.00  0.00    +0.000 OA
ATOM     21  C   UNL     1     109.657 128.177 138.801  0.00  0.00    +0.000 C 
ENDBRANCH  16  20
BRANCH  14  22
ATOM     22  O   UNL     1     108.890 129.424 136.825  0.00  0.00    +0.000 OA
BRANCH  22  31
ATOM     23  O   UNL     1     109.488 130.716 136.712  0.00  0.00    +0.000 OA
ATOM     24  O   UNL     1     107.630 131.449 135.251  0.00  0.00    +0.000 OA
ATOM     25  O   UNL     1     108.848 132.497 135.625  0.00  0.00    +0.000 OA
ATOM     26  O   UNL     1     107.651 129.912 135.851  0.00  0.00    +0.000 OA
ATOM     27  C   UNL     1     108.249 131.205 135.738  0.00  0.00    +0.000 C 
ATOM     28  C   UNL     1     108.859 131.728 135.925  0.00  0.00    +0.000 C 
ATOM     29  C   UNL     1     108.260 130.436 136.038  0.00  0.00    +0.000 C 
ATOM     30  C   UNL     1     109.478 131.484 136.412  0.00  0.00    +0.000 C 
ATOM     31  C   UNL     1     108.879 130.191 136.525  0.00  0.00    +0.000 C 
ATOM     32  C   UNL     1     110.087 132.008 136.599  0.00  0.00    +0.000 C 
ENDBRANCH  22  31
ENDBRANCH  14  22
ENDBRANCH   6  15
BRANCH   5  33
ATOM     33  O   UNL     1     112.413 128.807 136.446  0.00  0.00    +0.000 OA
BRANCH  33  42
ATOM     34  O   UNL     1     112.931 129.008 137.763  0.00  0.00    +0.000 OA
ATOM     35  O   UNL     1     114.095 131.052 136.993  0.00  0.00    +0.000 OA
ATOM     36  O   UNL     1     114.224 130.571 138.566  0.00  0.00    +0.000 OA
ATOM     37  O   UNL     1     113.189 130.169 135.933  0.00  0.00    +0.000 OA
ATOM     38  C   UNL     1     113.707 130.370 137.250  0.00  0.00    +0.000 C 
ATOM     39  C   UNL     1     113.771 130.130 138.036  0.00  0.00    +0.000 C 
ATOM     40  C   UNL     1     113.254 129.929 136.719  0.00  0.00    +0.000 C 
ATOM     41  C   UNL     1     113.383 129.449 138.292  0.00  0.00    +0.000 C 
ATOM     42  C   UNL     1     112.866 129.248 136.976  0.00  0.00    +0.000 C 
BRANCH  41  44
ATOM     43  O   UNL     1     112.785 129.227 139.571  0.00  0.00    +0.000 OA
ATOM     44  C   UNL     1     113.447 129.208 139.079  0.00  0.00    +0.000 C 
ENDBRANCH  41  44
ENDBRANCH  33  42
ENDBRANCH   5  33
TORSDOF 7
ENDMDL
MODEL 5
REMARK VINA RESULT:     -10.0      2.180      5.677
REMARK  Name = 74978259
REMARK  7 active torsions:
REMARK  status: ('A' for Active; 'I' for Inactive)
REMARK    1  A    between atoms: O_3  and  C_23
REMARK    2  A    between atoms: O_3  and  C_29
REMARK    3  A    between atoms: O_7  and  C_26
REMARK    4  A    between atoms: O_7  and  C_30
REMARK    5  A    between atoms: O_13  and  C_34
REMARK    6  A    between atoms: C_20  and  C_27
REMARK    7  A    between atoms: C_31  and  C_32
REMARK                            x       y       z     vdW  Elec       q    Type
REMARK                         _______ _______ _______ _____ _____    ______ ____
ROOT
ATOM      1  O   UNL     1     111.198 126.304 137.334  0.00  0.00    +0.000 OA
ATOM      2  O   UNL     1     113.555 127.015 137.070  0.00  0.00    +0.000 OA
ATOM      3  O   UNL     1     113.936 125.692 136.640  0.00  0.00    +0.000 OA
ATOM      4  O   UNL     1     111.894 123.610 136.474  0.00  0.00    +0.000 OA
ATOM      5  C   UNL     1     112.202 127.319 137.414  0.00  0.00    +0.000 A 
ATOM      6  C   UNL     1     111.416 127.083 137.502  0.00  0.00    +0.000 A 
ATOM      7  C   UNL     1     112.770 126.779 137.159  0.00  0.00    +0.000 A 
ATOM      8  C   UNL     1     112.552 126.000 136.991  0.00  0.00    +0.000 A 
ATOM      9  C   UNL     1     111.767 125.764 137.079  0.00  0.00    +0.000 A 
ATOM     10  C   UNL     1     113.153 125.446 136.725  0.00  0.00    +0.000 A 
ATOM     11  C   UNL     1     111.527 124.956 136.908  0.00  0.00    +0.000 A 
ATOM     12  C   UNL     1     112.932 124.635 136.549  0.00  0.00    +0.000 A 
ATOM     13  C   UNL     1     112.114 124.388 136.641  0.00  0.00    +0.000 A 
ENDROOT
BRANCH   6  15
ATOM     14  C   UNL     1     109.713 128.706 138.269  0.00  0.00    +0.000 A 
ATOM     15  C   UNL     1     110.849 127.624 137.758  0.00  0.00    +0.000 A 
ATOM     16  C   UNL     1     109.704 128.436 137.490  0.00  0.00    +0.000 A 
ATOM     17  C   UNL     1     110.289 128.435 138.793  0.00  0.00    +0.000 A 
ATOM     18  C   UNL     1     110.271 127.895 137.234  0.00  0.00    +0.000 A 
ATOM     19  C   UNL     1     110.857 127.893 138.537  0.00  0.00    +0.000 A 
BRANCH  16  20
ATOM     20  O   UNL     1     109.127 128.708 136.966  0.00  0.00    +0.000 OA
ATOM     21  C   UNL     1     108.976 128.294 136.267  0.00  0.00    +0.000 C 
ENDBRANCH  16  20
BRANCH  14  22
ATOM     22  O   UNL     1     109.144 129.247 138.525  0.00  0.00    +0.000 OA
BRANCH  22  31
ATOM     23  O   UNL     1     109.994 130.394 138.564  0.00  0.00    +0.000 OA
ATOM     24  O   UNL     1     108.846 131.176 140.612  0.00  0.00    +0.000 OA
ATOM     25  O   UNL     1     110.080 132.063 139.967  0.00  0.00    +0.000 OA
ATOM     26  O   UNL     1     108.379 129.768 139.890  0.00  0.00    +0.000 OA
ATOM     27  C   UNL     1     109.229 130.916 139.929  0.00  0.00    +0.000 C 
ATOM     28  C   UNL     1     109.846 131.359 139.607  0.00  0.00    +0.000 C 
ATOM     29  C   UNL     1     108.995 130.212 139.569  0.00  0.00    +0.000 C 
ATOM     30  C   UNL     1     110.228 131.099 138.924  0.00  0.00    +0.000 C 
ATOM     31  C   UNL     1     109.378 129.950 138.885  0.00  0.00    +0.000 C 
ATOM     32  C   UNL     1     110.845 131.542 138.602  0.00  0.00    +0.000 C 
ENDBRANCH  22  31
ENDBRANCH  14  22
ENDBRANCH   6  15
BRANCH   5  33
ATOM     33  O   UNL     1     112.419 128.097 137.582  0.00  0.00    +0.000 OA
BRANCH  33  42
ATOM     34  O   UNL     1     112.535 128.477 136.209  0.00  0.00    +0.000 OA
ATOM     35  O   UNL     1     114.266 130.139 136.815  0.00  0.00    +0.000 OA
ATOM     36  O   UNL     1     113.805 129.965 135.241  0.00  0.00    +0.000 OA
ATOM     37  O   UNL     1     113.573 129.206 137.985  0.00  0.00    +0.000 OA
ATOM     38  C   UNL     1     113.689 129.585 136.613  0.00  0.00    +0.000 C 
ATOM     39  C   UNL     1     113.458 129.498 135.826  0.00  0.00    +0.000 C 
ATOM     40  C   UNL     1     113.342 129.118 137.198  0.00  0.00    +0.000 C 
ATOM     41  C   UNL     1     112.882 128.944 135.624  0.00  0.00    +0.000 C 
ATOM     42  C   UNL     1     112.766 128.565 136.997  0.00  0.00    +0.000 C 
BRANCH  41  44
ATOM     43  O   UNL     1     111.875 129.029 134.613  0.00  0.00    +0.000 OA
ATOM     44  C   UNL     1     112.651 128.856 134.837  0.00  0.00    +0.000 C 
ENDBRANCH  41  44
ENDBRANCH  33  42
ENDBRANCH   5  33
TORSDOF 7
ENDMDL
MODEL 6
REMARK VINA RESULT:      -9.9      2.002      6.176
REMARK  Name = 74978259
REMARK  7 active torsions:
REMARK  status: ('A' for Active; 'I' for Inactive)
REMARK    1  A    between atoms: O_3  and  C_23
REMARK    2  A    between atoms: O_3  and  C_29
REMARK    3  A    between atoms: O_7  and  C_26
REMARK    4  A    between atoms: O_7  and  C_30
REMARK    5  A    between atoms: O_13  and  C_34
REMARK    6  A    between atoms: C_20  and  C_27
REMARK    7  A    between atoms: C_31  and  C_32
REMARK                            x       y       z     vdW  Elec       q    Type
REMARK                         _______ _______ _______ _____ _____    ______ ____
ROOT
ATOM      1  O   UNL     1     113.161 126.696 137.903  0.00  0.00    +0.000 OA
ATOM      2  O   UNL     1     111.191 125.335 137.275  0.00  0.00    +0.000 OA
ATOM      3  O   UNL     1     112.033 124.204 136.970  0.00  0.00    +0.000 OA
ATOM      4  O   UNL     1     114.924 124.455 137.308  0.00  0.00    +0.000 OA
ATOM      5  C   UNL     1     111.747 126.568 137.736  0.00  0.00    +0.000 A 
ATOM      6  C   UNL     1     112.404 127.022 137.945  0.00  0.00    +0.000 A 
ATOM      7  C   UNL     1     111.847 125.790 137.484  0.00  0.00    +0.000 A 
ATOM      8  C   UNL     1     112.605 125.464 137.442  0.00  0.00    +0.000 A 
ATOM      9  C   UNL     1     113.261 125.917 137.651  0.00  0.00    +0.000 A 
ATOM     10  C   UNL     1     112.696 124.651 137.178  0.00  0.00    +0.000 A 
ATOM     11  C   UNL     1     114.054 125.590 137.611  0.00  0.00    +0.000 A 
ATOM     12  C   UNL     1     113.482 124.306 137.132  0.00  0.00    +0.000 A 
ATOM     13  C   UNL     1     114.166 124.778 137.350  0.00  0.00    +0.000 A 
ENDROOT
BRANCH   6  15
ATOM     14  C   UNL     1     112.104 129.359 138.701  0.00  0.00    +0.000 A 
ATOM     15  C   UNL     1     112.304 127.801 138.197  0.00  0.00    +0.000 A 
ATOM     16  C   UNL     1     112.437 129.204 137.962  0.00  0.00    +0.000 A 
ATOM     17  C   UNL     1     111.871 128.736 139.188  0.00  0.00    +0.000 A 
ATOM     18  C   UNL     1     112.537 128.426 137.711  0.00  0.00    +0.000 A 
ATOM     19  C   UNL     1     111.971 127.956 138.936  0.00  0.00    +0.000 A 
BRANCH  16  20
ATOM     20  O   UNL     1     112.670 129.829 137.476  0.00  0.00    +0.000 OA
ATOM     21  C   UNL     1     113.270 129.717 136.920  0.00  0.00    +0.000 C 
ENDBRANCH  16  20
BRANCH  14  22
ATOM     22  O   UNL     1     112.003 130.139 138.954  0.00  0.00    +0.000 OA
BRANCH  22  31
ATOM     23  O   UNL     1     110.587 130.212 138.786  0.00  0.00    +0.000 OA
ATOM     24  O   UNL     1     110.409 131.532 140.872  0.00  0.00    +0.000 OA
ATOM     25  O   UNL     1     109.051 131.165 140.009  0.00  0.00    +0.000 OA
ATOM     26  O   UNL     1     111.886 131.019 140.344  0.00  0.00    +0.000 OA
ATOM     27  C   UNL     1     110.468 131.092 140.177  0.00  0.00    +0.000 C 
ATOM     28  C   UNL     1     109.789 130.909 139.745  0.00  0.00    +0.000 C 
ATOM     29  C   UNL     1     111.206 130.836 139.913  0.00  0.00    +0.000 C 
ATOM     30  C   UNL     1     109.849 130.469 139.050  0.00  0.00    +0.000 C 
ATOM     31  C   UNL     1     111.266 130.395 139.217  0.00  0.00    +0.000 C 
ATOM     32  C   UNL     1     109.170 130.285 138.618  0.00  0.00    +0.000 C 
ENDBRANCH  22  31
ENDBRANCH  14  22
ENDBRANCH   6  15
BRANCH   5  33
ATOM     33  O   UNL     1     110.991 126.894 137.778  0.00  0.00    +0.000 OA
BRANCH  33  42
ATOM     34  O   UNL     1     110.874 127.049 136.362  0.00  0.00    +0.000 OA
ATOM     35  O   UNL     1     108.414 126.857 136.543  0.00  0.00    +0.000 OA
ATOM     36  O   UNL     1     109.118 127.076 135.068  0.00  0.00    +0.000 OA
ATOM     37  O   UNL     1     109.350 126.766 137.899  0.00  0.00    +0.000 OA
ATOM     38  C   UNL     1     109.234 126.921 136.483  0.00  0.00    +0.000 C 
ATOM     39  C   UNL     1     109.586 127.030 135.745  0.00  0.00    +0.000 C 
ATOM     40  C   UNL     1     109.703 126.876 137.161  0.00  0.00    +0.000 C 
ATOM     41  C   UNL     1     110.406 127.094 135.685  0.00  0.00    +0.000 C 
ATOM     42  C   UNL     1     110.522 126.939 137.101  0.00  0.00    +0.000 C 
BRANCH  41  44
ATOM     43  O   UNL     1     111.155 127.908 134.781  0.00  0.00    +0.000 OA
ATOM     44  C   UNL     1     110.758 127.203 134.948  0.00  0.00    +0.000 C 
ENDBRANCH  41  44
ENDBRANCH  33  42
ENDBRANCH   5  33
TORSDOF 7
ENDMDL
MODEL 7
REMARK VINA RESULT:      -9.9      1.806      2.855
REMARK  Name = 74978259
REMARK  7 active torsions:
REMARK  status: ('A' for Active; 'I' for Inactive)
REMARK    1  A    between atoms: O_3  and  C_23
REMARK    2  A    between atoms: O_3  and  C_29
REMARK    3  A    between atoms: O_7  and  C_26
REMARK    4  A    between atoms: O_7  and  C_30
REMARK    5  A    between atoms: O_13  and  C_34
REMARK    6  A    between atoms: C_20  and  C_27
REMARK    7  A    between atoms: C_31  and  C_32
REMARK                            x       y       z     vdW  Elec       q    Type
REMARK                         _______ _______ _______ _____ _____    ______ ____
ROOT
ATOM      1  O   UNL     1     110.864 130.657 136.550  0.00  0.00    +0.000 OA
ATOM      2  O   UNL     1     111.102 131.118 138.971  0.00  0.00    +0.000 OA
ATOM      3  O   UNL     1     110.638 132.472 138.788  0.00  0.00    +0.000 OA
ATOM      4  O   UNL     1     109.921 133.376 136.104  0.00  0.00    +0.000 OA
ATOM      5  C   UNL     1     111.214 130.219 137.865  0.00  0.00    +0.000 A 
ATOM      6  C   UNL     1     111.135 130.065 137.058  0.00  0.00    +0.000 A 
ATOM      7  C   UNL     1     111.023 130.963 138.164  0.00  0.00    +0.000 A 
ATOM      8  C   UNL     1     110.752 131.555 137.655  0.00  0.00    +0.000 A 
ATOM      9  C   UNL     1     110.673 131.402 136.849  0.00  0.00    +0.000 A 
ATOM     10  C   UNL     1     110.556 132.327 137.979  0.00  0.00    +0.000 A 
ATOM     11  C   UNL     1     110.392 132.008 136.310  0.00  0.00    +0.000 A 
ATOM     12  C   UNL     1     110.274 132.946 137.455  0.00  0.00    +0.000 A 
ATOM     13  C   UNL     1     110.191 132.787 136.615  0.00  0.00    +0.000 A 
ENDROOT
BRANCH   6  15
ATOM     14  C   UNL     1     111.708 127.831 136.162  0.00  0.00    +0.000 A 
ATOM     15  C   UNL     1     111.326 129.321 136.760  0.00  0.00    +0.000 A 
ATOM     16  C   UNL     1     112.204 128.474 136.016  0.00  0.00    +0.000 A 
ATOM     17  C   UNL     1     111.020 127.932 136.606  0.00  0.00    +0.000 A 
ATOM     18  C   UNL     1     112.013 129.218 136.315  0.00  0.00    +0.000 A 
ATOM     19  C   UNL     1     110.829 128.678 136.905  0.00  0.00    +0.000 A 
BRANCH  16  20
ATOM     20  O   UNL     1     112.892 128.371 135.572  0.00  0.00    +0.000 OA
ATOM     21  C   UNL     1     113.208 129.005 135.148  0.00  0.00    +0.000 C 
ENDBRANCH  16  20
BRANCH  14  22
ATOM     22  O   UNL     1     111.899 127.085 135.863  0.00  0.00    +0.000 OA
BRANCH  22  31
ATOM     23  O   UNL     1     112.220 126.472 137.112  0.00  0.00    +0.000 OA
ATOM     24  O   UNL     1     111.188 124.360 136.340  0.00  0.00    +0.000 OA
ATOM     25  O   UNL     1     111.853 124.450 137.847  0.00  0.00    +0.000 OA
ATOM     26  O   UNL     1     111.211 125.678 135.347  0.00  0.00    +0.000 OA
ATOM     27  C   UNL     1     111.532 125.063 136.597  0.00  0.00    +0.000 C 
ATOM     28  C   UNL     1     111.864 125.109 137.351  0.00  0.00    +0.000 C 
ATOM     29  C   UNL     1     111.543 125.722 136.101  0.00  0.00    +0.000 C 
ATOM     30  C   UNL     1     112.208 125.813 137.608  0.00  0.00    +0.000 C 
ATOM     31  C   UNL     1     111.887 126.427 136.358  0.00  0.00    +0.000 C 
ATOM     32  C   UNL     1     112.541 125.859 138.362  0.00  0.00    +0.000 C 
ENDBRANCH  22  31
ENDBRANCH  14  22
ENDBRANCH   6  15
BRANCH   5  33
ATOM     33  O   UNL     1     111.484 129.628 138.373  0.00  0.00    +0.000 OA
BRANCH  33  42
ATOM     34  O   UNL     1     112.790 130.194 138.509  0.00  0.00    +0.000 OA
ATOM     35  O   UNL     1     112.978 129.216 140.774  0.00  0.00    +0.000 OA
ATOM     36  O   UNL     1     114.220 130.107 140.154  0.00  0.00    +0.000 OA
ATOM     37  O   UNL     1     111.610 128.976 139.884  0.00  0.00    +0.000 OA
ATOM     38  C   UNL     1     112.915 129.542 140.019  0.00  0.00    +0.000 C 
ATOM     39  C   UNL     1     113.536 129.987 139.709  0.00  0.00    +0.000 C 
ATOM     40  C   UNL     1     112.231 129.422 139.573  0.00  0.00    +0.000 C 
ATOM     41  C   UNL     1     113.473 130.313 138.954  0.00  0.00    +0.000 C 
ATOM     42  C   UNL     1     112.168 129.747 138.819  0.00  0.00    +0.000 C 
BRANCH  41  44
ATOM     43  O   UNL     1     114.471 130.514 137.951  0.00  0.00    +0.000 OA
ATOM     44  C   UNL     1     114.094 130.759 138.644  0.00  0.00    +0.000 C 
ENDBRANCH  41  44
ENDBRANCH  33  42
ENDBRANCH   5  33
TORSDOF 7
ENDMDL
MODEL 8
REMARK VINA RESULT:      -9.9      1.968      5.909
REMARK  Name = 74978259
REMARK  7 active torsions:
REMARK  status: ('A' for Active; 'I' for Inactive)
REMARK    1  A    between atoms: O_3  and  C_23
REMARK    2  A    between atoms: O_3  and  C_29
REMARK    3  A    between atoms: O_7  and  C_26
REMARK    4  A    between atoms: O_7  and  C_30
REMARK    5  A    between atoms: O_13  and  C_34
REMARK    6  A    between atoms: C_20  and  C_27
REMARK    7  A    between atoms: C_31  and  C_32
REMARK                            x       y       z     vdW  Elec       q    Type
REMARK                         _______ _______ _______ _____ _____    ______ ____
ROOT
ATOM      1  O   UNL     1     113.502 126.194 138.606  0.00  0.00    +0.000 OA
ATOM      2  O   UNL     1     111.546 125.022 137.643  0.00  0.00    +0.000 OA
ATOM      3  O   UNL     1     112.397 124.272 136.753  0.00  0.00    +0.000 OA
ATOM      4  O   UNL     1     115.283 124.716 136.838  0.00  0.00    +0.000 OA
ATOM      5  C   UNL     1     112.091 125.973 138.560  0.00  0.00    +0.000 A 
ATOM      6  C   UNL     1     112.742 126.364 138.882  0.00  0.00    +0.000 A 
ATOM      7  C   UNL     1     112.197 125.413 137.965  0.00  0.00    +0.000 A 
ATOM      8  C   UNL     1     112.957 125.244 137.689  0.00  0.00    +0.000 A 
ATOM      9  C   UNL     1     113.609 125.634 138.010  0.00  0.00    +0.000 A 
ATOM     10  C   UNL     1     113.055 124.658 137.068  0.00  0.00    +0.000 A 
ATOM     11  C   UNL     1     114.404 125.467 137.732  0.00  0.00    +0.000 A 
ATOM     12  C   UNL     1     113.843 124.477 136.777  0.00  0.00    +0.000 A 
ATOM     13  C   UNL     1     114.523 124.884 137.111  0.00  0.00    +0.000 A 
ENDROOT
BRANCH   6  15
ATOM     14  C   UNL     1     112.422 128.044 140.670  0.00  0.00    +0.000 A 
ATOM     15  C   UNL     1     112.636 126.924 139.477  0.00  0.00    +0.000 A 
ATOM     16  C   UNL     1     112.631 128.286 139.909  0.00  0.00    +0.000 A 
ATOM     17  C   UNL     1     112.319 127.243 140.834  0.00  0.00    +0.000 A 
ATOM     18  C   UNL     1     112.738 127.726 139.314  0.00  0.00    +0.000 A 
ATOM     19  C   UNL     1     112.426 126.682 140.238  0.00  0.00    +0.000 A 
BRANCH  16  20
ATOM     20  O   UNL     1     112.734 129.088 139.746  0.00  0.00    +0.000 OA
ATOM     21  C   UNL     1     113.249 129.324 139.144  0.00  0.00    +0.000 C 
ENDBRANCH  16  20
BRANCH  14  22
ATOM     22  O   UNL     1     112.315 128.605 141.266  0.00  0.00    +0.000 OA
BRANCH  22  31
ATOM     23  O   UNL     1     110.890 128.527 141.335  0.00  0.00    +0.000 OA
ATOM     24  O   UNL     1     110.996 128.773 143.795  0.00  0.00    +0.000 OA
ATOM     25  O   UNL     1     109.536 128.613 143.044  0.00  0.00    +0.000 OA
ATOM     26  O   UNL     1     112.386 128.769 142.906  0.00  0.00    +0.000 OA
ATOM     27  C   UNL     1     110.961 128.691 142.976  0.00  0.00    +0.000 C 
ATOM     28  C   UNL     1     110.231 128.611 142.599  0.00  0.00    +0.000 C 
ATOM     29  C   UNL     1     111.656 128.689 142.531  0.00  0.00    +0.000 C 
ATOM     30  C   UNL     1     110.195 128.529 141.780  0.00  0.00    +0.000 C 
ATOM     31  C   UNL     1     111.621 128.607 141.710  0.00  0.00    +0.000 C 
ATOM     32  C   UNL     1     109.465 128.449 141.403  0.00  0.00    +0.000 C 
ENDBRANCH  22  31
ENDBRANCH  14  22
ENDBRANCH   6  15
BRANCH   5  33
ATOM     33  O   UNL     1     111.332 126.143 138.836  0.00  0.00    +0.000 OA
BRANCH  33  42
ATOM     34  O   UNL     1     110.980 126.902 137.677  0.00  0.00    +0.000 OA
ATOM     35  O   UNL     1     108.596 126.341 138.033  0.00  0.00    +0.000 OA
ATOM     36  O   UNL     1     109.039 127.286 136.757  0.00  0.00    +0.000 OA
ATOM     37  O   UNL     1     109.742 125.769 139.073  0.00  0.00    +0.000 OA
ATOM     38  C   UNL     1     109.391 126.528 137.914  0.00  0.00    +0.000 C 
ATOM     39  C   UNL     1     109.613 127.001 137.276  0.00  0.00    +0.000 C 
ATOM     40  C   UNL     1     109.964 126.242 138.435  0.00  0.00    +0.000 C 
ATOM     41  C   UNL     1     110.407 127.187 137.158  0.00  0.00    +0.000 C 
ATOM     42  C   UNL     1     110.758 126.428 138.316  0.00  0.00    +0.000 C 
BRANCH  41  44
ATOM     43  O   UNL     1     110.961 128.404 136.653  0.00  0.00    +0.000 OA
ATOM     44  C   UNL     1     110.629 127.660 136.519  0.00  0.00    +0.000 C 
ENDBRANCH  41  44
ENDBRANCH  33  42
ENDBRANCH   5  33
TORSDOF 7
ENDMDL
MODEL 9
REMARK VINA RESULT:      -9.9      2.096      4.637
REMARK  Name = 74978259
REMARK  7 active torsions:
REMARK  status: ('A' for Active; 'I' for Inactive)
REMARK    1  A    between atoms: O_3  and  C_23
REMARK    2  A    between atoms: O_3  and  C_29
REMARK    3  A    between atoms: O_7  and  C_26
REMARK    4  A    between atoms: O_7  and  C_30
REMARK    5  A    between atoms: O_13  and  C_34
REMARK    6  A    between atoms: C_20  and  C_27
REMARK    7  A    between atoms: C_31  and  C_32
REMARK                            x       y       z     vdW  Elec       q    Type
REMARK                         _______ _______ _______ _____ _____    ______ ____
ROOT
ATOM      1  O   UNL     1     110.352 129.113 137.544  0.00  0.00    +0.000 OA
ATOM      2  O   UNL     1     111.574 130.111 135.636  0.00  0.00    +0.000 OA
ATOM      3  O   UNL     1     110.485 129.803 134.741  0.00  0.00    +0.000 OA
ATOM      4  O   UNL     1     108.116 128.461 135.797  0.00  0.00    +0.000 OA
ATOM      5  C   UNL     1     111.510 129.770 137.023  0.00  0.00    +0.000 A 
ATOM      6  C   UNL     1     111.103 129.438 137.659  0.00  0.00    +0.000 A 
ATOM      7  C   UNL     1     111.167 129.778 136.273  0.00  0.00    +0.000 A 
ATOM      8  C   UNL     1     110.417 129.454 136.158  0.00  0.00    +0.000 A 
ATOM      9  C   UNL     1     110.010 129.121 136.793  0.00  0.00    +0.000 A 
ATOM     10  C   UNL     1     110.071 129.468 135.371  0.00  0.00    +0.000 A 
ATOM     11  C   UNL     1     109.229 128.780 136.688  0.00  0.00    +0.000 A 
ATOM     12  C   UNL     1     109.290 129.132 135.246  0.00  0.00    +0.000 A 
ATOM     13  C   UNL     1     108.866 128.786 135.908  0.00  0.00    +0.000 A 
ENDROOT
BRANCH   6  15
ATOM     14  C   UNL     1     112.130 129.413 139.910  0.00  0.00    +0.000 A 
ATOM     15  C   UNL     1     111.445 129.429 138.409  0.00  0.00    +0.000 A 
ATOM     16  C   UNL     1     112.046 128.710 139.487  0.00  0.00    +0.000 A 
ATOM     17  C   UNL     1     111.872 130.125 139.583  0.00  0.00    +0.000 A 
ATOM     18  C   UNL     1     111.704 128.718 138.737  0.00  0.00    +0.000 A 
ATOM     19  C   UNL     1     111.529 130.133 138.831  0.00  0.00    +0.000 A 
BRANCH  16  20
ATOM     20  O   UNL     1     112.304 127.998 139.816  0.00  0.00    +0.000 OA
ATOM     21  C   UNL     1     111.995 127.282 139.545  0.00  0.00    +0.000 C 
ENDBRANCH  16  20
BRANCH  14  22
ATOM     22  O   UNL     1     112.473 129.405 140.661  0.00  0.00    +0.000 OA
BRANCH  22  31
ATOM     23  O   UNL     1     113.751 129.972 140.368  0.00  0.00    +0.000 OA
ATOM     24  O   UNL     1     113.550 131.448 142.344  0.00  0.00    +0.000 OA
ATOM     25  O   UNL     1     114.895 131.522 141.392  0.00  0.00    +0.000 OA
ATOM     26  O   UNL     1     112.338 130.389 141.979  0.00  0.00    +0.000 OA
ATOM     27  C   UNL     1     113.617 130.956 141.686  0.00  0.00    +0.000 C 
ATOM     28  C   UNL     1     114.290 130.993 141.209  0.00  0.00    +0.000 C 
ATOM     29  C   UNL     1     113.011 130.427 141.503  0.00  0.00    +0.000 C 
ATOM     30  C   UNL     1     114.357 130.501 140.551  0.00  0.00    +0.000 C 
ATOM     31  C   UNL     1     113.078 129.934 140.844  0.00  0.00    +0.000 C 
ATOM     32  C   UNL     1     115.029 130.538 140.074  0.00  0.00    +0.000 C 
ENDBRANCH  22  31
ENDBRANCH  14  22
ENDBRANCH   6  15
BRANCH   5  33
ATOM     33  O   UNL     1     112.259 130.095 137.137  0.00  0.00    +0.000 OA
BRANCH  33  42
ATOM     34  O   UNL     1     112.948 129.006 136.518  0.00  0.00    +0.000 OA
ATOM     35  O   UNL     1     114.745 130.549 135.802  0.00  0.00    +0.000 OA
ATOM     36  O   UNL     1     114.834 128.947 135.422  0.00  0.00    +0.000 OA
ATOM     37  O   UNL     1     113.458 131.124 136.660  0.00  0.00    +0.000 OA
ATOM     38  C   UNL     1     114.146 130.035 136.041  0.00  0.00    +0.000 C 
ATOM     39  C   UNL     1     114.190 129.233 135.851  0.00  0.00    +0.000 C 
ATOM     40  C   UNL     1     113.502 130.322 136.470  0.00  0.00    +0.000 C 
ATOM     41  C   UNL     1     113.592 128.720 136.090  0.00  0.00    +0.000 C 
ATOM     42  C   UNL     1     112.903 129.808 136.708  0.00  0.00    +0.000 C 
BRANCH  41  44
ATOM     43  O   UNL     1     113.703 127.355 136.501  0.00  0.00    +0.000 OA
ATOM     44  C   UNL     1     113.636 127.918 135.900  0.00  0.00    +0.000 C 
ENDBRANCH  41  44
ENDBRANCH  33  42
ENDBRANCH   5  33
TORSDOF 7
ENDMDL
MODEL 10
REMARK VINA RESULT:      -9.9      1.801      5.273
REMARK  Name = 74978259
REMARK  7 active torsions:
REMARK  status: ('A' for Active; 'I' for Inactive)
REMARK    1  A    between atoms: O_3  and  C_23
REMARK    2  A    between atoms: O_3  and  C_29
REMARK    3  A    between atoms: O_7  and  C_26
REMARK    4  A    between atoms: O_7  and  C_30
REMARK    5  A    between atoms: O_13  and  C_34
REMARK    6  A    between atoms: C_20  and  C_27
REMARK    7  A    between atoms: C_31  and  C_32
REMARK                            x       y       z     vdW  Elec       q    Type
REMARK                         _______ _______ _______ _____ _____    ______ ____
ROOT
ATOM      1  O   UNL     1     112.632 127.032 136.969  0.00  0.00    +0.000 OA
ATOM      2  O   UNL     1     113.088 127.572 139.342  0.00  0.00    +0.000 OA
ATOM      3  O   UNL     1     114.007 126.465 139.447  0.00  0.00    +0.000 OA
ATOM      4  O   UNL     1     114.473 124.780 137.107  0.00  0.00    +0.000 OA
ATOM      5  C   UNL     1     112.407 127.853 138.117  0.00  0.00    +0.000 A 
ATOM      6  C   UNL     1     112.255 127.674 137.326  0.00  0.00    +0.000 A 
ATOM      7  C   UNL     1     112.935 127.392 138.551  0.00  0.00    +0.000 A 
ATOM      8  C   UNL     1     113.312 126.750 138.193  0.00  0.00    +0.000 A 
ATOM      9  C   UNL     1     113.161 126.571 137.403  0.00  0.00    +0.000 A 
ATOM     10  C   UNL     1     113.861 126.277 138.656  0.00  0.00    +0.000 A 
ATOM     11  C   UNL     1     113.546 125.906 137.020  0.00  0.00    +0.000 A 
ATOM     12  C   UNL     1     114.256 125.608 138.290  0.00  0.00    +0.000 A 
ATOM     13  C   UNL     1     114.098 125.421 137.466  0.00  0.00    +0.000 A 
ENDROOT
BRANCH   6  15
ATOM     14  C   UNL     1     110.670 129.058 136.024  0.00  0.00    +0.000 A 
ATOM     15  C   UNL     1     111.727 128.135 136.892  0.00  0.00    +0.000 A 
ATOM     16  C   UNL     1     111.475 129.073 135.844  0.00  0.00    +0.000 A 
ATOM     17  C   UNL     1     110.393 128.582 136.638  0.00  0.00    +0.000 A 
ATOM     18  C   UNL     1     112.003 128.612 136.278  0.00  0.00    +0.000 A 
ATOM     19  C   UNL     1     110.922 128.120 137.073  0.00  0.00    +0.000 A 
BRANCH  16  20
ATOM     20  O   UNL     1     111.750 129.549 135.229  0.00  0.00    +0.000 OA
ATOM     21  C   UNL     1     112.438 129.341 134.822  0.00  0.00    +0.000 C 
ENDBRANCH  16  20
BRANCH  14  22
ATOM     22  O   UNL     1     110.141 129.520 135.590  0.00  0.00    +0.000 OA
BRANCH  22  31
ATOM     23  O   UNL     1     109.875 130.510 136.584  0.00  0.00    +0.000 OA
ATOM     24  O   UNL     1     107.485 130.513 135.942  0.00  0.00    +0.000 OA
ATOM     25  O   UNL     1     108.016 131.503 137.150  0.00  0.00    +0.000 OA
ATOM     26  O   UNL     1     108.548 129.521 135.161  0.00  0.00    +0.000 OA
ATOM     27  C   UNL     1     108.281 130.512 136.156  0.00  0.00    +0.000 C 
ATOM     28  C   UNL     1     108.547 131.007 136.760  0.00  0.00    +0.000 C 
ATOM     29  C   UNL     1     108.812 130.016 135.766  0.00  0.00    +0.000 C 
ATOM     30  C   UNL     1     109.343 131.006 136.974  0.00  0.00    +0.000 C 
ATOM     31  C   UNL     1     109.610 130.015 135.980  0.00  0.00    +0.000 C 
ATOM     32  C   UNL     1     109.609 131.501 137.579  0.00  0.00    +0.000 C 
ENDBRANCH  22  31
ENDBRANCH  14  22
ENDBRANCH   6  15
BRANCH   5  33
ATOM     33  O   UNL     1     112.031 128.495 138.474  0.00  0.00    +0.000 OA
BRANCH  33  42
ATOM     34  O   UNL     1     113.171 129.354 138.416  0.00  0.00    +0.000 OA
ATOM     35  O   UNL     1     112.431 130.475 140.495  0.00  0.00    +0.000 OA
ATOM     36  O   UNL     1     113.817 130.960 139.744  0.00  0.00    +0.000 OA
ATOM     37  O   UNL     1     111.537 129.242 139.860  0.00  0.00    +0.000 OA
ATOM     38  C   UNL     1     112.678 130.102 139.802  0.00  0.00    +0.000 C 
ATOM     39  C   UNL     1     113.371 130.344 139.426  0.00  0.00    +0.000 C 
ATOM     40  C   UNL     1     112.231 129.485 139.484  0.00  0.00    +0.000 C 
ATOM     41  C   UNL     1     113.617 129.971 138.734  0.00  0.00    +0.000 C 
ATOM     42  C   UNL     1     112.477 129.111 138.792  0.00  0.00    +0.000 C 
BRANCH  41  44
ATOM     43  O   UNL     1     114.275 130.546 137.604  0.00  0.00    +0.000 OA
ATOM     44  C   UNL     1     114.310 130.213 138.359  0.00  0.00    +0.000 C 
ENDBRANCH  41  44
ENDBRANCH  33  42
ENDBRANCH   5  33
TORSDOF 7
ENDMDL
