MODEL 1
REMARK VINA RESULT:      -9.7      0.000      0.000
REMARK  Name = 44258468
REMARK  9 active torsions:
REMARK  status: ('A' for Active; 'I' for Inactive)
REMARK    1  A    between atoms: O_2  and  C_18
REMARK    2  A    between atoms: O_2  and  C_20
REMARK    3  A    between atoms: O_6  and  C_19
REMARK    4  A    between atoms: O_6  and  C_26
REMARK    5  A    between atoms: O_7  and  C_21
REMARK    6  A    between atoms: C_16  and  C_19
REMARK    7  A    between atoms: C_26  and  C_28
REMARK    8  A    between atoms: C_29  and  C_31
REMARK    9  A    between atoms: C_33  and  C_36
REMARK                            x       y       z     vdW  Elec       q    Type
REMARK                         _______ _______ _______ _____ _____    ______ ____
ROOT
ATOM      1  O   UNL     1     112.594 130.603 136.509  0.00  0.00    +0.000 OA
ENDROOT
BRANCH   1   5
ATOM      2  O   UNL     1     112.460 128.319 138.261  0.00  0.00    +0.000 OA
ATOM      3  O   UNL     1     113.671 128.101 135.642  0.00  0.00    +0.000 OA
ATOM      4  O   UNL     1     113.624 126.934 136.489  0.00  0.00    +0.000 OA
ATOM      5  C   UNL     1     112.753 129.806 136.651  0.00  0.00    +0.000 A 
ATOM      6  C   UNL     1     113.133 129.351 136.075  0.00  0.00    +0.000 A 
ATOM      7  C   UNL     1     112.534 129.462 137.368  0.00  0.00    +0.000 A 
ATOM      8  C   UNL     1     112.694 128.665 137.510  0.00  0.00    +0.000 A 
ATOM      9  C   UNL     1     113.292 128.555 136.217  0.00  0.00    +0.000 A 
ATOM     10  C   UNL     1     113.072 128.212 136.935  0.00  0.00    +0.000 A 
ATOM     11  C   UNL     1     113.244 127.381 137.070  0.00  0.00    +0.000 A 
ATOM     12  C   UNL     1     112.623 127.490 138.415  0.00  0.00    +0.000 A 
ATOM     13  C   UNL     1     113.018 127.017 137.815  0.00  0.00    +0.000 A 
BRANCH  12  15
ATOM     14  O   UNL     1     111.744 126.127 141.289  0.00  0.00    +0.000 OA
ATOM     15  C   UNL     1     112.403 127.149 139.133  0.00  0.00    +0.000 A 
ATOM     16  C   UNL     1     111.646 126.837 139.227  0.00  0.00    +0.000 A 
ATOM     17  C   UNL     1     112.941 127.121 139.758  0.00  0.00    +0.000 A 
ATOM     18  C   UNL     1     111.426 126.496 139.946  0.00  0.00    +0.000 A 
ATOM     19  C   UNL     1     112.722 126.780 140.477  0.00  0.00    +0.000 A 
ATOM     20  C   UNL     1     111.964 126.468 140.570  0.00  0.00    +0.000 A 
ENDBRANCH  12  15
BRANCH   6  21
ATOM     21  O   UNL     1     113.352 129.695 135.358  0.00  0.00    +0.000 OA
ATOM     22  C   UNL     1     114.151 129.803 135.179  0.00  0.00    +0.000 C 
ENDBRANCH   6  21
ENDBRANCH   1   5
BRANCH   1  31
ATOM     23  O   UNL     1     111.172 130.500 136.412  0.00  0.00    +0.000 OA
ATOM     24  O   UNL     1     109.592 131.821 137.137  0.00  0.00    +0.000 OA
ATOM     25  O   UNL     1     110.935 132.634 137.644  0.00  0.00    +0.000 OA
ATOM     26  O   UNL     1     112.436 132.025 137.330  0.00  0.00    +0.000 OA
ATOM     27  C   UNL     1     110.342 131.516 136.980  0.00  0.00    +0.000 C 
ATOM     28  C   UNL     1     111.014 131.923 137.233  0.00  0.00    +0.000 C 
ATOM     29  C   UNL     1     110.421 130.805 136.569  0.00  0.00    +0.000 C 
ATOM     30  C   UNL     1     111.764 131.618 137.076  0.00  0.00    +0.000 C 
ATOM     31  C   UNL     1     111.843 130.907 136.666  0.00  0.00    +0.000 C 
BRANCH  29  32
ATOM     32  C   UNL     1     109.750 130.398 136.316  0.00  0.00    +0.000 C 
BRANCH  32  33
ATOM     33  O   UNL     1     109.799 129.875 135.680  0.00  0.00    +0.000 OA
BRANCH  33  35
ATOM     34  O   UNL     1     108.479 129.370 135.469  0.00  0.00    +0.000 OA
ATOM     35  C   UNL     1     109.278 129.238 135.628  0.00  0.00    +0.000 C 
BRANCH  35  36
ATOM     36  C   UNL     1     109.555 128.468 135.734  0.00  0.00    +0.000 C 
ATOM     37  C   UNL     1     109.613 127.957 135.090  0.00  0.00    +0.000 C 
BRANCH  37  39
ATOM     38  O   UNL     1     110.720 124.878 135.518  0.00  0.00    +0.000 OA
ATOM     39  C   UNL     1     109.890 127.187 135.196  0.00  0.00    +0.000 A 
ATOM     40  C   UNL     1     109.708 126.776 135.888  0.00  0.00    +0.000 A 
ATOM     41  C   UNL     1     110.348 126.829 134.612  0.00  0.00    +0.000 A 
ATOM     42  C   UNL     1     109.985 126.007 135.996  0.00  0.00    +0.000 A 
ATOM     43  C   UNL     1     110.624 126.060 134.719  0.00  0.00    +0.000 A 
ATOM     44  C   UNL     1     110.443 125.649 135.411  0.00  0.00    +0.000 A 
ENDBRANCH  37  39
ENDBRANCH  35  36
ENDBRANCH  33  35
ENDBRANCH  32  33
ENDBRANCH  29  32
ENDBRANCH   1  31
TORSDOF 9
ENDMDL
MODEL 2
REMARK VINA RESULT:      -9.4      1.460      4.918
REMARK  Name = 44258468
REMARK  9 active torsions:
REMARK  status: ('A' for Active; 'I' for Inactive)
REMARK    1  A    between atoms: O_2  and  C_18
REMARK    2  A    between atoms: O_2  and  C_20
REMARK    3  A    between atoms: O_6  and  C_19
REMARK    4  A    between atoms: O_6  and  C_26
REMARK    5  A    between atoms: O_7  and  C_21
REMARK    6  A    between atoms: C_16  and  C_19
REMARK    7  A    between atoms: C_26  and  C_28
REMARK    8  A    between atoms: C_29  and  C_31
REMARK    9  A    between atoms: C_33  and  C_36
REMARK                            x       y       z     vdW  Elec       q    Type
REMARK                         _______ _______ _______ _____ _____    ______ ____
ROOT
ATOM      1  O   UNL     1     112.216 126.087 138.203  0.00  0.00    +0.000 OA
ENDROOT
BRANCH   1   5
ATOM      2  O   UNL     1     113.340 128.388 136.882  0.00  0.00    +0.000 OA
ATOM      3  O   UNL     1     111.229 128.693 138.839  0.00  0.00    +0.000 OA
ATOM      4  O   UNL     1     111.765 129.871 138.200  0.00  0.00    +0.000 OA
ATOM      5  C   UNL     1     112.234 126.905 138.093  0.00  0.00    +0.000 A 
ATOM      6  C   UNL     1     111.722 127.391 138.521  0.00  0.00    +0.000 A 
ATOM      7  C   UNL     1     112.764 127.237 137.555  0.00  0.00    +0.000 A 
ATOM      8  C   UNL     1     112.783 128.055 137.446  0.00  0.00    +0.000 A 
ATOM      9  C   UNL     1     111.740 128.208 138.411  0.00  0.00    +0.000 A 
ATOM     10  C   UNL     1     112.271 128.539 137.873  0.00  0.00    +0.000 A 
ATOM     11  C   UNL     1     112.280 129.392 137.768  0.00  0.00    +0.000 A 
ATOM     12  C   UNL     1     113.364 129.239 136.763  0.00  0.00    +0.000 A 
ATOM     13  C   UNL     1     112.830 129.745 137.209  0.00  0.00    +0.000 A 
BRANCH  12  15
ATOM     14  O   UNL     1     115.489 130.560 134.612  0.00  0.00    +0.000 OA
ATOM     15  C   UNL     1     113.894 129.568 136.225  0.00  0.00    +0.000 A 
ATOM     16  C   UNL     1     113.927 129.287 135.451  0.00  0.00    +0.000 A 
ATOM     17  C   UNL     1     114.394 130.180 136.462  0.00  0.00    +0.000 A 
ATOM     18  C   UNL     1     114.458 129.617 134.912  0.00  0.00    +0.000 A 
ATOM     19  C   UNL     1     114.926 130.512 135.925  0.00  0.00    +0.000 A 
ATOM     20  C   UNL     1     114.958 130.229 135.150  0.00  0.00    +0.000 A 
ENDBRANCH  12  15
BRANCH   6  21
ATOM     21  O   UNL     1     111.192 127.058 139.059  0.00  0.00    +0.000 OA
ATOM     22  C   UNL     1     111.322 127.139 139.870  0.00  0.00    +0.000 C 
ENDBRANCH   6  21
ENDBRANCH   1   5
BRANCH   1  31
ATOM     23  O   UNL     1     111.566 125.717 136.985  0.00  0.00    +0.000 OA
ATOM     24  O   UNL     1     111.959 124.078 135.597  0.00  0.00    +0.000 OA
ATOM     25  O   UNL     1     113.129 123.815 136.730  0.00  0.00    +0.000 OA
ATOM     26  O   UNL     1     113.258 124.819 138.033  0.00  0.00    +0.000 OA
ATOM     27  C   UNL     1     112.023 124.581 136.248  0.00  0.00    +0.000 C 
ATOM     28  C   UNL     1     112.608 124.449 136.815  0.00  0.00    +0.000 C 
ATOM     29  C   UNL     1     111.502 125.215 136.333  0.00  0.00    +0.000 C 
ATOM     30  C   UNL     1     112.672 124.951 137.466  0.00  0.00    +0.000 C 
ATOM     31  C   UNL     1     112.151 125.585 137.551  0.00  0.00    +0.000 C 
BRANCH  29  32
ATOM     32  C   UNL     1     110.917 125.346 135.767  0.00  0.00    +0.000 C 
BRANCH  32  33
ATOM     33  O   UNL     1     110.326 125.905 135.906  0.00  0.00    +0.000 OA
BRANCH  33  35
ATOM     34  O   UNL     1     109.483 125.826 134.756  0.00  0.00    +0.000 OA
ATOM     35  C   UNL     1     109.948 126.272 135.271  0.00  0.00    +0.000 C 
BRANCH  35  36
ATOM     36  C   UNL     1     110.034 127.084 135.152  0.00  0.00    +0.000 C 
ATOM     37  C   UNL     1     109.451 127.604 135.415  0.00  0.00    +0.000 C 
BRANCH  37  39
ATOM     38  O   UNL     1     109.792 130.851 134.939  0.00  0.00    +0.000 OA
ATOM     39  C   UNL     1     109.537 128.416 135.295  0.00  0.00    +0.000 A 
ATOM     40  C   UNL     1     109.083 128.947 135.734  0.00  0.00    +0.000 A 
ATOM     41  C   UNL     1     110.076 128.696 134.738  0.00  0.00    +0.000 A 
ATOM     42  C   UNL     1     109.167 129.759 135.615  0.00  0.00    +0.000 A 
ATOM     43  C   UNL     1     110.161 129.508 134.619  0.00  0.00    +0.000 A 
ATOM     44  C   UNL     1     109.707 130.039 135.058  0.00  0.00    +0.000 A 
ENDBRANCH  37  39
ENDBRANCH  35  36
ENDBRANCH  33  35
ENDBRANCH  32  33
ENDBRANCH  29  32
ENDBRANCH   1  31
TORSDOF 9
ENDMDL
MODEL 3
REMARK VINA RESULT:      -9.4      1.784      4.402
REMARK  Name = 44258468
REMARK  9 active torsions:
REMARK  status: ('A' for Active; 'I' for Inactive)
REMARK    1  A    between atoms: O_2  and  C_18
REMARK    2  A    between atoms: O_2  and  C_20
REMARK    3  A    between atoms: O_6  and  C_19
REMARK    4  A    between atoms: O_6  and  C_26
REMARK    5  A    between atoms: O_7  and  C_21
REMARK    6  A    between atoms: C_16  and  C_19
REMARK    7  A    between atoms: C_26  and  C_28
REMARK    8  A    between atoms: C_29  and  C_31
REMARK    9  A    between atoms: C_33  and  C_36
REMARK                            x       y       z     vdW  Elec       q    Type
REMARK                         _______ _______ _______ _____ _____    ______ ____
ROOT
ATOM      1  O   UNL     1     112.169 125.325 136.391  0.00  0.00    +0.000 OA
ENDROOT
BRANCH   1   5
ATOM      2  O   UNL     1     111.578 126.384 139.004  0.00  0.00    +0.000 OA
ATOM      3  O   UNL     1     114.316 125.967 138.165  0.00  0.00    +0.000 OA
ATOM      4  O   UNL     1     114.062 126.500 139.481  0.00  0.00    +0.000 OA
ATOM      5  C   UNL     1     112.434 125.607 137.120  0.00  0.00    +0.000 A 
ATOM      6  C   UNL     1     113.243 125.646 137.278  0.00  0.00    +0.000 A 
ATOM      7  C   UNL     1     111.890 125.851 137.690  0.00  0.00    +0.000 A 
ATOM      8  C   UNL     1     112.155 126.134 138.419  0.00  0.00    +0.000 A 
ATOM      9  C   UNL     1     113.508 125.929 138.007  0.00  0.00    +0.000 A 
ATOM     10  C   UNL     1     112.963 126.172 138.577  0.00  0.00    +0.000 A 
ATOM     11  C   UNL     1     113.252 126.464 139.331  0.00  0.00    +0.000 A 
ATOM     12  C   UNL     1     111.847 126.679 139.765  0.00  0.00    +0.000 A 
ATOM     13  C   UNL     1     112.690 126.720 139.930  0.00  0.00    +0.000 A 
BRANCH  12  15
ATOM     14  O   UNL     1     109.664 127.655 142.039  0.00  0.00    +0.000 OA
ATOM     15  C   UNL     1     111.301 126.922 140.333  0.00  0.00    +0.000 A 
ATOM     16  C   UNL     1     110.948 126.368 140.831  0.00  0.00    +0.000 A 
ATOM     17  C   UNL     1     111.109 127.721 140.405  0.00  0.00    +0.000 A 
ATOM     18  C   UNL     1     110.402 126.611 141.400  0.00  0.00    +0.000 A 
ATOM     19  C   UNL     1     110.563 127.966 140.973  0.00  0.00    +0.000 A 
ATOM     20  C   UNL     1     110.210 127.411 141.470  0.00  0.00    +0.000 A 
ENDBRANCH  12  15
BRANCH   6  21
ATOM     21  O   UNL     1     113.786 125.402 136.707  0.00  0.00    +0.000 OA
ATOM     22  C   UNL     1     114.215 124.705 136.818  0.00  0.00    +0.000 C 
ENDBRANCH   6  21
ENDBRANCH   1   5
BRANCH   1  31
ATOM     23  O   UNL     1     111.737 126.575 135.850  0.00  0.00    +0.000 OA
ATOM     24  O   UNL     1     109.998 127.080 134.631  0.00  0.00    +0.000 OA
ATOM     25  O   UNL     1     109.776 125.458 134.834  0.00  0.00    +0.000 OA
ATOM     26  O   UNL     1     110.861 124.580 135.714  0.00  0.00    +0.000 OA
ATOM     27  C   UNL     1     110.541 126.642 135.071  0.00  0.00    +0.000 C 
ATOM     28  C   UNL     1     110.430 125.830 135.173  0.00  0.00    +0.000 C 
ATOM     29  C   UNL     1     111.195 127.014 135.410  0.00  0.00    +0.000 C 
ATOM     30  C   UNL     1     110.973 125.392 135.613  0.00  0.00    +0.000 C 
ATOM     31  C   UNL     1     111.626 125.764 135.951  0.00  0.00    +0.000 C 
BRANCH  29  32
ATOM     32  C   UNL     1     111.306 127.825 135.308  0.00  0.00    +0.000 C 
BRANCH  32  33
ATOM     33  O   UNL     1     112.019 128.176 135.531  0.00  0.00    +0.000 OA
BRANCH  33  35
ATOM     34  O   UNL     1     112.005 129.522 135.054  0.00  0.00    +0.000 OA
ATOM     35  C   UNL     1     112.052 128.986 135.679  0.00  0.00    +0.000 C 
BRANCH  35  36
ATOM     36  C   UNL     1     112.132 129.261 136.453  0.00  0.00    +0.000 C 
ATOM     37  C   UNL     1     112.856 129.556 136.714  0.00  0.00    +0.000 C 
BRANCH  37  39
ATOM     38  O   UNL     1     113.178 130.657 139.808  0.00  0.00    +0.000 OA
ATOM     39  C   UNL     1     112.936 129.831 137.488  0.00  0.00    +0.000 A 
ATOM     40  C   UNL     1     113.662 129.768 137.874  0.00  0.00    +0.000 A 
ATOM     41  C   UNL     1     112.291 130.169 137.874  0.00  0.00    +0.000 A 
ATOM     42  C   UNL     1     113.743 130.043 138.648  0.00  0.00    +0.000 A 
ATOM     43  C   UNL     1     112.371 130.444 138.647  0.00  0.00    +0.000 A 
ATOM     44  C   UNL     1     113.097 130.381 139.034  0.00  0.00    +0.000 A 
ENDBRANCH  37  39
ENDBRANCH  35  36
ENDBRANCH  33  35
ENDBRANCH  32  33
ENDBRANCH  29  32
ENDBRANCH   1  31
TORSDOF 9
ENDMDL
MODEL 4
REMARK VINA RESULT:      -9.4      1.601      5.594
REMARK  Name = 44258468
REMARK  9 active torsions:
REMARK  status: ('A' for Active; 'I' for Inactive)
REMARK    1  A    between atoms: O_2  and  C_18
REMARK    2  A    between atoms: O_2  and  C_20
REMARK    3  A    between atoms: O_6  and  C_19
REMARK    4  A    between atoms: O_6  and  C_26
REMARK    5  A    between atoms: O_7  and  C_21
REMARK    6  A    between atoms: C_16  and  C_19
REMARK    7  A    between atoms: C_26  and  C_28
REMARK    8  A    between atoms: C_29  and  C_31
REMARK    9  A    between atoms: C_33  and  C_36
REMARK                            x       y       z     vdW  Elec       q    Type
REMARK                         _______ _______ _______ _____ _____    ______ ____
ROOT
ATOM      1  O   UNL     1     110.398 126.395 136.042  0.00  0.00    +0.000 OA
ENDROOT
BRANCH   1   5
ATOM      2  O   UNL     1     112.392 128.449 135.715  0.00  0.00    +0.000 OA
ATOM      3  O   UNL     1     109.675 129.131 136.441  0.00  0.00    +0.000 OA
ATOM      4  O   UNL     1     110.644 130.189 136.287  0.00  0.00    +0.000 OA
ATOM      5  C   UNL     1     110.604 127.194 136.056  0.00  0.00    +0.000 A 
ATOM      6  C   UNL     1     110.037 127.764 136.242  0.00  0.00    +0.000 A 
ATOM      7  C   UNL     1     111.377 127.424 135.883  0.00  0.00    +0.000 A 
ATOM      8  C   UNL     1     111.583 128.223 135.897  0.00  0.00    +0.000 A 
ATOM      9  C   UNL     1     110.242 128.562 136.255  0.00  0.00    +0.000 A 
ATOM     10  C   UNL     1     111.016 128.791 136.083  0.00  0.00    +0.000 A 
ATOM     11  C   UNL     1     111.218 129.626 136.100  0.00  0.00    +0.000 A 
ATOM     12  C   UNL     1     112.613 129.279 135.727  0.00  0.00    +0.000 A 
ATOM     13  C   UNL     1     112.022 129.872 135.921  0.00  0.00    +0.000 A 
BRANCH  12  15
ATOM     14  O   UNL     1     115.710 130.188 135.039  0.00  0.00    +0.000 OA
ATOM     15  C   UNL     1     113.387 129.506 135.555  0.00  0.00    +0.000 A 
ATOM     16  C   UNL     1     113.675 129.441 134.784  0.00  0.00    +0.000 A 
ATOM     17  C   UNL     1     113.874 129.799 136.153  0.00  0.00    +0.000 A 
ATOM     18  C   UNL     1     114.449 129.668 134.612  0.00  0.00    +0.000 A 
ATOM     19  C   UNL     1     114.648 130.027 135.982  0.00  0.00    +0.000 A 
ATOM     20  C   UNL     1     114.936 129.961 135.211  0.00  0.00    +0.000 A 
ENDBRANCH  12  15
BRANCH   6  21
ATOM     21  O   UNL     1     109.263 127.534 136.414  0.00  0.00    +0.000 OA
ATOM     22  C   UNL     1     108.660 127.677 135.870  0.00  0.00    +0.000 C 
ENDBRANCH   6  21
ENDBRANCH   1   5
BRANCH   1  31
ATOM     23  O   UNL     1     111.139 125.993 137.197  0.00  0.00    +0.000 OA
ATOM     24  O   UNL     1     112.285 124.179 137.598  0.00  0.00    +0.000 OA
ATOM     25  O   UNL     1     111.748 123.876 136.068  0.00  0.00    +0.000 OA
ATOM     26  O   UNL     1     110.805 124.984 135.290  0.00  0.00    +0.000 OA
ATOM     27  C   UNL     1     111.813 124.733 137.210  0.00  0.00    +0.000 C 
ATOM     28  C   UNL     1     111.545 124.581 136.444  0.00  0.00    +0.000 C 
ATOM     29  C   UNL     1     111.610 125.439 137.586  0.00  0.00    +0.000 C 
ATOM     30  C   UNL     1     111.073 125.136 136.056  0.00  0.00    +0.000 C 
ATOM     31  C   UNL     1     110.870 125.841 136.432  0.00  0.00    +0.000 C 
BRANCH  29  32
ATOM     32  C   UNL     1     111.879 125.590 138.351  0.00  0.00    +0.000 C 
BRANCH  32  33
ATOM     33  O   UNL     1     111.667 126.290 138.732  0.00  0.00    +0.000 OA
BRANCH  33  35
ATOM     34  O   UNL     1     112.183 126.107 140.052  0.00  0.00    +0.000 OA
ATOM     35  C   UNL     1     112.112 126.565 139.369  0.00  0.00    +0.000 C 
BRANCH  35  36
ATOM     36  C   UNL     1     112.488 127.298 139.325  0.00  0.00    +0.000 C 
ATOM     37  C   UNL     1     112.189 127.942 139.743  0.00  0.00    +0.000 C 
BRANCH  37  39
ATOM     38  O   UNL     1     113.690 130.875 139.565  0.00  0.00    +0.000 OA
ATOM     39  C   UNL     1     112.565 128.675 139.699  0.00  0.00    +0.000 A 
ATOM     40  C   UNL     1     112.117 129.363 139.614  0.00  0.00    +0.000 A 
ATOM     41  C   UNL     1     113.387 128.721 139.739  0.00  0.00    +0.000 A 
ATOM     42  C   UNL     1     112.492 130.097 139.569  0.00  0.00    +0.000 A 
ATOM     43  C   UNL     1     113.762 129.454 139.695  0.00  0.00    +0.000 A 
ATOM     44  C   UNL     1     113.315 130.141 139.610  0.00  0.00    +0.000 A 
ENDBRANCH  37  39
ENDBRANCH  35  36
ENDBRANCH  33  35
ENDBRANCH  32  33
ENDBRANCH  29  32
ENDBRANCH   1  31
TORSDOF 9
ENDMDL
MODEL 5
REMARK VINA RESULT:      -9.4      1.571      4.090
REMARK  Name = 44258468
REMARK  9 active torsions:
REMARK  status: ('A' for Active; 'I' for Inactive)
REMARK    1  A    between atoms: O_2  and  C_18
REMARK    2  A    between atoms: O_2  and  C_20
REMARK    3  A    between atoms: O_6  and  C_19
REMARK    4  A    between atoms: O_6  and  C_26
REMARK    5  A    between atoms: O_7  and  C_21
REMARK    6  A    between atoms: C_16  and  C_19
REMARK    7  A    between atoms: C_26  and  C_28
REMARK    8  A    between atoms: C_29  and  C_31
REMARK    9  A    between atoms: C_33  and  C_36
REMARK                            x       y       z     vdW  Elec       q    Type
REMARK                         _______ _______ _______ _____ _____    ______ ____
ROOT
ATOM      1  O   UNL     1     113.683 126.670 136.561  0.00  0.00    +0.000 OA
ENDROOT
BRANCH   1   5
ATOM      2  O   UNL     1     111.968 128.105 138.378  0.00  0.00    +0.000 OA
ATOM      3  O   UNL     1     113.142 129.436 136.092  0.00  0.00    +0.000 OA
ATOM      4  O   UNL     1     112.289 130.191 136.977  0.00  0.00    +0.000 OA
ATOM      5  C   UNL     1     113.310 127.372 136.781  0.00  0.00    +0.000 A 
ATOM      6  C   UNL     1     113.413 128.054 136.326  0.00  0.00    +0.000 A 
ATOM      7  C   UNL     1     112.834 127.394 137.454  0.00  0.00    +0.000 A 
ATOM      8  C   UNL     1     112.461 128.096 137.674  0.00  0.00    +0.000 A 
ATOM      9  C   UNL     1     113.039 128.756 136.546  0.00  0.00    +0.000 A 
ATOM     10  C   UNL     1     112.564 128.777 137.220  0.00  0.00    +0.000 A 
ATOM     11  C   UNL     1     112.181 129.514 137.437  0.00  0.00    +0.000 A 
ATOM     12  C   UNL     1     111.577 128.833 138.612  0.00  0.00    +0.000 A 
ATOM     13  C   UNL     1     111.684 129.543 138.138  0.00  0.00    +0.000 A 
BRANCH  12  15
ATOM     14  O   UNL     1     109.673 128.908 141.306  0.00  0.00    +0.000 OA
ATOM     15  C   UNL     1     111.102 128.852 139.285  0.00  0.00    +0.000 A 
ATOM     16  C   UNL     1     111.429 129.049 140.016  0.00  0.00    +0.000 A 
ATOM     17  C   UNL     1     110.298 128.673 139.228  0.00  0.00    +0.000 A 
ATOM     18  C   UNL     1     110.953 129.068 140.690  0.00  0.00    +0.000 A 
ATOM     19  C   UNL     1     109.821 128.692 139.901  0.00  0.00    +0.000 A 
ATOM     20  C   UNL     1     110.149 128.889 140.632  0.00  0.00    +0.000 A 
ENDBRANCH  12  15
BRANCH   6  21
ATOM     21  O   UNL     1     113.888 128.032 135.653  0.00  0.00    +0.000 OA
ATOM     22  C   UNL     1     114.563 128.506 135.609  0.00  0.00    +0.000 C 
ENDBRANCH   6  21
ENDBRANCH   1   5
BRANCH   1  31
ATOM     23  O   UNL     1     112.496 125.953 136.214  0.00  0.00    +0.000 OA
ATOM     24  O   UNL     1     111.970 123.850 136.470  0.00  0.00    +0.000 OA
ATOM     25  O   UNL     1     113.488 123.873 137.118  0.00  0.00    +0.000 OA
ATOM     26  O   UNL     1     114.344 125.283 137.163  0.00  0.00    +0.000 OA
ATOM     27  C   UNL     1     112.398 124.555 136.492  0.00  0.00    +0.000 C 
ATOM     28  C   UNL     1     113.157 124.567 136.817  0.00  0.00    +0.000 C 
ATOM     29  C   UNL     1     112.067 125.249 136.191  0.00  0.00    +0.000 C 
ATOM     30  C   UNL     1     113.585 125.272 136.839  0.00  0.00    +0.000 C 
ATOM     31  C   UNL     1     113.254 125.965 136.538  0.00  0.00    +0.000 C 
BRANCH  29  32
ATOM     32  C   UNL     1     111.309 125.237 135.868  0.00  0.00    +0.000 C 
BRANCH  32  33
ATOM     33  O   UNL     1     111.096 125.791 135.294  0.00  0.00    +0.000 OA
BRANCH  33  35
ATOM     34  O   UNL     1     109.806 125.431 134.798  0.00  0.00    +0.000 OA
ATOM     35  C   UNL     1     110.302 125.974 135.172  0.00  0.00    +0.000 C 
BRANCH  35  36
ATOM     36  C   UNL     1     110.001 126.700 135.424  0.00  0.00    +0.000 C 
ATOM     37  C   UNL     1     109.849 127.297 134.876  0.00  0.00    +0.000 C 
BRANCH  37  39
ATOM     38  O   UNL     1     108.650 130.202 135.881  0.00  0.00    +0.000 OA
ATOM     39  C   UNL     1     109.549 128.023 135.127  0.00  0.00    +0.000 A 
ATOM     40  C   UNL     1     109.807 128.721 134.772  0.00  0.00    +0.000 A 
ATOM     41  C   UNL     1     108.992 128.051 135.734  0.00  0.00    +0.000 A 
ATOM     42  C   UNL     1     109.507 129.447 135.022  0.00  0.00    +0.000 A 
ATOM     43  C   UNL     1     108.692 128.777 135.985  0.00  0.00    +0.000 A 
ATOM     44  C   UNL     1     108.950 129.475 135.629  0.00  0.00    +0.000 A 
ENDBRANCH  37  39
ENDBRANCH  35  36
ENDBRANCH  33  35
ENDBRANCH  32  33
ENDBRANCH  29  32
ENDBRANCH   1  31
TORSDOF 9
ENDMDL
MODEL 6
REMARK VINA RESULT:      -9.4      1.762      3.625
REMARK  Name = 44258468
REMARK  9 active torsions:
REMARK  status: ('A' for Active; 'I' for Inactive)
REMARK    1  A    between atoms: O_2  and  C_18
REMARK    2  A    between atoms: O_2  and  C_20
REMARK    3  A    between atoms: O_6  and  C_19
REMARK    4  A    between atoms: O_6  and  C_26
REMARK    5  A    between atoms: O_7  and  C_21
REMARK    6  A    between atoms: C_16  and  C_19
REMARK    7  A    between atoms: C_26  and  C_28
REMARK    8  A    between atoms: C_29  and  C_31
REMARK    9  A    between atoms: C_33  and  C_36
REMARK                            x       y       z     vdW  Elec       q    Type
REMARK                         _______ _______ _______ _____ _____    ______ ____
ROOT
ATOM      1  O   UNL     1     111.265 129.046 135.355  0.00  0.00    +0.000 OA
ENDROOT
BRANCH   1   5
ATOM      2  O   UNL     1     112.005 126.424 136.294  0.00  0.00    +0.000 OA
ATOM      3  O   UNL     1     113.992 128.511 136.022  0.00  0.00    +0.000 OA
ATOM      4  O   UNL     1     114.404 127.212 136.495  0.00  0.00    +0.000 OA
ATOM      5  C   UNL     1     111.846 128.525 135.622  0.00  0.00    +0.000 A 
ATOM      6  C   UNL     1     112.629 128.778 135.689  0.00  0.00    +0.000 A 
ATOM      7  C   UNL     1     111.646 127.750 135.822  0.00  0.00    +0.000 A 
ATOM      8  C   UNL     1     112.227 127.229 136.089  0.00  0.00    +0.000 A 
ATOM      9  C   UNL     1     113.210 128.257 135.955  0.00  0.00    +0.000 A 
ATOM     10  C   UNL     1     113.009 127.482 136.155  0.00  0.00    +0.000 A 
ATOM     11  C   UNL     1     113.624 126.950 136.432  0.00  0.00    +0.000 A 
ATOM     12  C   UNL     1     112.605 125.877 136.572  0.00  0.00    +0.000 A 
ATOM     13  C   UNL     1     113.421 126.141 136.642  0.00  0.00    +0.000 A 
BRANCH  12  15
ATOM     14  O   UNL     1     111.791 122.781 137.372  0.00  0.00    +0.000 OA
ATOM     15  C   UNL     1     112.402 125.103 136.771  0.00  0.00    +0.000 A 
ATOM     16  C   UNL     1     112.791 124.468 136.415  0.00  0.00    +0.000 A 
ATOM     17  C   UNL     1     111.810 124.963 137.328  0.00  0.00    +0.000 A 
ATOM     18  C   UNL     1     112.587 123.694 136.615  0.00  0.00    +0.000 A 
ATOM     19  C   UNL     1     111.605 124.189 137.528  0.00  0.00    +0.000 A 
ATOM     20  C   UNL     1     111.994 123.555 137.172  0.00  0.00    +0.000 A 
ENDBRANCH  12  15
BRANCH   6  21
ATOM     21  O   UNL     1     112.829 129.553 135.489  0.00  0.00    +0.000 OA
ATOM     22  C   UNL     1     113.288 129.700 134.818  0.00  0.00    +0.000 C 
ENDBRANCH   6  21
ENDBRANCH   1   5
BRANCH   1  31
ATOM     23  O   UNL     1     110.635 129.252 136.621  0.00  0.00    +0.000 OA
ATOM     24  O   UNL     1     108.533 129.526 137.144  0.00  0.00    +0.000 OA
ATOM     25  O   UNL     1     108.427 129.353 135.506  0.00  0.00    +0.000 OA
ATOM     26  O   UNL     1     109.793 129.113 134.612  0.00  0.00    +0.000 OA
ATOM     27  C   UNL     1     109.216 129.406 136.697  0.00  0.00    +0.000 C 
ATOM     28  C   UNL     1     109.163 129.319 135.878  0.00  0.00    +0.000 C 
ATOM     29  C   UNL     1     109.952 129.372 137.069  0.00  0.00    +0.000 C 
ATOM     30  C   UNL     1     109.846 129.199 135.431  0.00  0.00    +0.000 C 
ATOM     31  C   UNL     1     110.582 129.166 135.803  0.00  0.00    +0.000 C 
BRANCH  29  32
ATOM     32  C   UNL     1     110.005 129.458 137.887  0.00  0.00    +0.000 C 
BRANCH  32  33
ATOM     33  O   UNL     1     110.334 128.856 138.346  0.00  0.00    +0.000 OA
BRANCH  33  35
ATOM     34  O   UNL     1     110.166 129.453 139.633  0.00  0.00    +0.000 OA
ATOM     35  C   UNL     1     110.625 129.023 139.099  0.00  0.00    +0.000 C 
BRANCH  35  36
ATOM     36  C   UNL     1     111.376 128.761 139.319  0.00  0.00    +0.000 C 
ATOM     37  C   UNL     1     111.475 128.000 139.622  0.00  0.00    +0.000 C 
BRANCH  37  39
ATOM     38  O   UNL     1     114.478 126.953 140.502  0.00  0.00    +0.000 OA
ATOM     39  C   UNL     1     112.226 127.738 139.842  0.00  0.00    +0.000 A 
ATOM     40  C   UNL     1     112.880 128.230 139.742  0.00  0.00    +0.000 A 
ATOM     41  C   UNL     1     112.322 126.984 140.162  0.00  0.00    +0.000 A 
ATOM     42  C   UNL     1     113.631 127.969 139.962  0.00  0.00    +0.000 A 
ATOM     43  C   UNL     1     113.072 126.723 140.382  0.00  0.00    +0.000 A 
ATOM     44  C   UNL     1     113.727 127.215 140.282  0.00  0.00    +0.000 A 
ENDBRANCH  37  39
ENDBRANCH  35  36
ENDBRANCH  33  35
ENDBRANCH  32  33
ENDBRANCH  29  32
ENDBRANCH   1  31
TORSDOF 9
ENDMDL
MODEL 7
REMARK VINA RESULT:      -9.3      2.003      4.026
REMARK  Name = 44258468
REMARK  9 active torsions:
REMARK  status: ('A' for Active; 'I' for Inactive)
REMARK    1  A    between atoms: O_2  and  C_18
REMARK    2  A    between atoms: O_2  and  C_20
REMARK    3  A    between atoms: O_6  and  C_19
REMARK    4  A    between atoms: O_6  and  C_26
REMARK    5  A    between atoms: O_7  and  C_21
REMARK    6  A    between atoms: C_16  and  C_19
REMARK    7  A    between atoms: C_26  and  C_28
REMARK    8  A    between atoms: C_29  and  C_31
REMARK    9  A    between atoms: C_33  and  C_36
REMARK                            x       y       z     vdW  Elec       q    Type
REMARK                         _______ _______ _______ _____ _____    ______ ____
ROOT
ATOM      1  O   UNL     1     112.701 128.413 140.628  0.00  0.00    +0.000 OA
ENDROOT
BRANCH   1   5
ATOM      2  O   UNL     1     113.464 126.623 138.503  0.00  0.00    +0.000 OA
ATOM      3  O   UNL     1     110.883 126.375 139.787  0.00  0.00    +0.000 OA
ATOM      4  O   UNL     1     111.226 125.459 138.726  0.00  0.00    +0.000 OA
ATOM      5  C   UNL     1     112.520 127.775 140.137  0.00  0.00    +0.000 A 
ATOM      6  C   UNL     1     111.791 127.394 140.207  0.00  0.00    +0.000 A 
ATOM      7  C   UNL     1     113.067 127.518 139.575  0.00  0.00    +0.000 A 
ATOM      8  C   UNL     1     112.886 126.880 139.084  0.00  0.00    +0.000 A 
ATOM      9  C   UNL     1     111.610 126.756 139.716  0.00  0.00    +0.000 A 
ATOM     10  C   UNL     1     112.158 126.500 139.154  0.00  0.00    +0.000 A 
ATOM     11  C   UNL     1     111.957 125.835 138.649  0.00  0.00    +0.000 A 
ATOM     12  C   UNL     1     113.282 125.960 137.988  0.00  0.00    +0.000 A 
ATOM     13  C   UNL     1     112.523 125.562 138.062  0.00  0.00    +0.000 A 
BRANCH  12  15
ATOM     14  O   UNL     1     115.476 124.943 135.743  0.00  0.00    +0.000 OA
ATOM     15  C   UNL     1     113.830 125.705 137.428  0.00  0.00    +0.000 A 
ATOM     16  C   UNL     1     114.299 125.043 137.578  0.00  0.00    +0.000 A 
ATOM     17  C   UNL     1     113.911 126.113 136.716  0.00  0.00    +0.000 A 
ATOM     18  C   UNL     1     114.847 124.788 137.017  0.00  0.00    +0.000 A 
ATOM     19  C   UNL     1     114.460 125.859 136.153  0.00  0.00    +0.000 A 
ATOM     20  C   UNL     1     114.928 125.197 136.305  0.00  0.00    +0.000 A 
ENDBRANCH  12  15
BRANCH   6  21
ATOM     21  O   UNL     1     111.245 127.651 140.769  0.00  0.00    +0.000 OA
ATOM     22  C   UNL     1     111.088 127.187 141.434  0.00  0.00    +0.000 C 
ENDBRANCH   6  21
ENDBRANCH   1   5
BRANCH   1  31
ATOM     23  O   UNL     1     112.828 129.417 139.619  0.00  0.00    +0.000 OA
ATOM     24  O   UNL     1     114.261 131.049 139.400  0.00  0.00    +0.000 OA
ATOM     25  O   UNL     1     114.786 130.360 140.804  0.00  0.00    +0.000 OA
ATOM     26  O   UNL     1     114.006 129.041 141.418  0.00  0.00    +0.000 OA
ATOM     27  C   UNL     1     113.871 130.390 139.706  0.00  0.00    +0.000 C 
ATOM     28  C   UNL     1     114.134 130.045 140.409  0.00  0.00    +0.000 C 
ATOM     29  C   UNL     1     113.218 130.076 139.311  0.00  0.00    +0.000 C 
ATOM     30  C   UNL     1     113.743 129.386 140.715  0.00  0.00    +0.000 C 
ATOM     31  C   UNL     1     113.091 129.072 140.320  0.00  0.00    +0.000 C 
BRANCH  29  32
ATOM     32  C   UNL     1     112.956 130.421 138.610  0.00  0.00    +0.000 C 
BRANCH  32  33
ATOM     33  O   UNL     1     112.207 130.238 138.314  0.00  0.00    +0.000 OA
BRANCH  33  35
ATOM     34  O   UNL     1     111.957 131.113 137.213  0.00  0.00    +0.000 OA
ATOM     35  C   UNL     1     112.041 130.349 137.515  0.00  0.00    +0.000 C 
BRANCH  35  36
ATOM     36  C   UNL     1     111.958 129.698 137.015  0.00  0.00    +0.000 C 
ATOM     37  C   UNL     1     111.240 129.557 136.635  0.00  0.00    +0.000 C 
BRANCH  37  39
ATOM     38  O   UNL     1     110.907 126.950 134.639  0.00  0.00    +0.000 OA
ATOM     39  C   UNL     1     111.157 128.905 136.136  0.00  0.00    +0.000 A 
ATOM     40  C   UNL     1     110.614 128.312 136.319  0.00  0.00    +0.000 A 
ATOM     41  C   UNL     1     111.617 128.847 135.454  0.00  0.00    +0.000 A 
ATOM     42  C   UNL     1     110.530 127.660 135.821  0.00  0.00    +0.000 A 
ATOM     43  C   UNL     1     111.534 128.196 134.955  0.00  0.00    +0.000 A 
ATOM     44  C   UNL     1     110.990 127.602 135.139  0.00  0.00    +0.000 A 
ENDBRANCH  37  39
ENDBRANCH  35  36
ENDBRANCH  33  35
ENDBRANCH  32  33
ENDBRANCH  29  32
ENDBRANCH   1  31
TORSDOF 9
ENDMDL
MODEL 8
REMARK VINA RESULT:      -9.3      7.207     10.416
REMARK  Name = 44258468
REMARK  9 active torsions:
REMARK  status: ('A' for Active; 'I' for Inactive)
REMARK    1  A    between atoms: O_2  and  C_18
REMARK    2  A    between atoms: O_2  and  C_20
REMARK    3  A    between atoms: O_6  and  C_19
REMARK    4  A    between atoms: O_6  and  C_26
REMARK    5  A    between atoms: O_7  and  C_21
REMARK    6  A    between atoms: C_16  and  C_19
REMARK    7  A    between atoms: C_26  and  C_28
REMARK    8  A    between atoms: C_29  and  C_31
REMARK    9  A    between atoms: C_33  and  C_36
REMARK                            x       y       z     vdW  Elec       q    Type
REMARK                         _______ _______ _______ _____ _____    ______ ____
ROOT
ATOM      1  O   UNL     1     106.343 125.409 142.978  0.00  0.00    +0.000 OA
ENDROOT
BRANCH   1   5
ATOM      2  O   UNL     1     105.077 127.990 142.782  0.00  0.00    +0.000 OA
ATOM      3  O   UNL     1     107.749 127.574 141.751  0.00  0.00    +0.000 OA
ATOM      4  O   UNL     1     107.151 128.881 141.633  0.00  0.00    +0.000 OA
ATOM      5  C   UNL     1     106.372 126.198 142.739  0.00  0.00    +0.000 A 
ATOM      6  C   UNL     1     107.046 126.492 142.364  0.00  0.00    +0.000 A 
ATOM      7  C   UNL     1     105.727 126.695 142.874  0.00  0.00    +0.000 A 
ATOM      8  C   UNL     1     105.756 127.484 142.635  0.00  0.00    +0.000 A 
ATOM      9  C   UNL     1     107.075 127.281 142.125  0.00  0.00    +0.000 A 
ATOM     10  C   UNL     1     106.430 127.776 142.261  0.00  0.00    +0.000 A 
ATOM     11  C   UNL     1     106.473 128.596 142.007  0.00  0.00    +0.000 A 
ATOM     12  C   UNL     1     105.101 128.813 142.535  0.00  0.00    +0.000 A 
ATOM     13  C   UNL     1     105.804 129.118 142.145  0.00  0.00    +0.000 A 
BRANCH  12  15
ATOM     14  O   UNL     1     102.516 130.790 143.083  0.00  0.00    +0.000 OA
ATOM     15  C   UNL     1     104.455 129.306 142.672  0.00  0.00    +0.000 A 
ATOM     16  C   UNL     1     103.889 129.420 142.082  0.00  0.00    +0.000 A 
ATOM     17  C   UNL     1     104.374 129.687 143.399  0.00  0.00    +0.000 A 
ATOM     18  C   UNL     1     103.243 129.914 142.219  0.00  0.00    +0.000 A 
ATOM     19  C   UNL     1     103.728 130.182 143.537  0.00  0.00    +0.000 A 
ATOM     20  C   UNL     1     103.163 130.295 142.947  0.00  0.00    +0.000 A 
ENDBRANCH  12  15
BRANCH   6  21
ATOM     21  O   UNL     1     107.691 125.995 142.230  0.00  0.00    +0.000 OA
ATOM     22  C   UNL     1     107.884 125.770 141.459  0.00  0.00    +0.000 C 
ENDBRANCH   6  21
ENDBRANCH   1   5
BRANCH   1  31
ATOM     23  O   UNL     1     106.399 125.645 144.387  0.00  0.00    +0.000 OA
ATOM     24  O   UNL     1     105.386 124.649 146.044  0.00  0.00    +0.000 OA
ATOM     25  O   UNL     1     104.796 123.796 144.760  0.00  0.00    +0.000 OA
ATOM     26  O   UNL     1     105.274 124.177 143.227  0.00  0.00    +0.000 OA
ATOM     27  C   UNL     1     105.625 124.839 145.278  0.00  0.00    +0.000 C 
ATOM     28  C   UNL     1     105.330 124.413 144.635  0.00  0.00    +0.000 C 
ATOM     29  C   UNL     1     106.160 125.455 145.153  0.00  0.00    +0.000 C 
ATOM     30  C   UNL     1     105.570 124.603 143.869  0.00  0.00    +0.000 C 
ATOM     31  C   UNL     1     106.104 125.219 143.745  0.00  0.00    +0.000 C 
BRANCH  29  32
ATOM     32  C   UNL     1     106.454 125.881 145.795  0.00  0.00    +0.000 C 
BRANCH  32  33
ATOM     33  O   UNL     1     107.018 126.472 145.675  0.00  0.00    +0.000 OA
BRANCH  33  35
ATOM     34  O   UNL     1     107.474 126.810 146.986  0.00  0.00    +0.000 OA
ATOM     35  C   UNL     1     107.155 127.037 146.260  0.00  0.00    +0.000 C 
BRANCH  35  36
ATOM     36  C   UNL     1     106.972 127.829 146.119  0.00  0.00    +0.000 C 
ATOM     37  C   UNL     1     107.575 128.372 145.973  0.00  0.00    +0.000 C 
BRANCH  37  39
ATOM     38  O   UNL     1     106.849 131.541 145.408  0.00  0.00    +0.000 OA
ATOM     39  C   UNL     1     107.393 129.164 145.832  0.00  0.00    +0.000 A 
ATOM     40  C   UNL     1     107.831 129.596 145.282  0.00  0.00    +0.000 A 
ATOM     41  C   UNL     1     106.775 129.525 146.241  0.00  0.00    +0.000 A 
ATOM     42  C   UNL     1     107.649 130.388 145.140  0.00  0.00    +0.000 A 
ATOM     43  C   UNL     1     106.593 130.316 146.100  0.00  0.00    +0.000 A 
ATOM     44  C   UNL     1     107.030 130.748 145.550  0.00  0.00    +0.000 A 
ENDBRANCH  37  39
ENDBRANCH  35  36
ENDBRANCH  33  35
ENDBRANCH  32  33
ENDBRANCH  29  32
ENDBRANCH   1  31
TORSDOF 9
ENDMDL
MODEL 9
REMARK VINA RESULT:      -9.3      1.277      2.297
REMARK  Name = 44258468
REMARK  9 active torsions:
REMARK  status: ('A' for Active; 'I' for Inactive)
REMARK    1  A    between atoms: O_2  and  C_18
REMARK    2  A    between atoms: O_2  and  C_20
REMARK    3  A    between atoms: O_6  and  C_19
REMARK    4  A    between atoms: O_6  and  C_26
REMARK    5  A    between atoms: O_7  and  C_21
REMARK    6  A    between atoms: C_16  and  C_19
REMARK    7  A    between atoms: C_26  and  C_28
REMARK    8  A    between atoms: C_29  and  C_31
REMARK    9  A    between atoms: C_33  and  C_36
REMARK                            x       y       z     vdW  Elec       q    Type
REMARK                         _______ _______ _______ _____ _____    ______ ____
ROOT
ATOM      1  O   UNL     1     111.234 129.503 135.829  0.00  0.00    +0.000 OA
ENDROOT
BRANCH   1   5
ATOM      2  O   UNL     1     112.033 128.146 138.242  0.00  0.00    +0.000 OA
ATOM      3  O   UNL     1     113.662 127.996 135.855  0.00  0.00    +0.000 OA
ATOM      4  O   UNL     1     114.098 127.302 137.043  0.00  0.00    +0.000 OA
ATOM      5  C   UNL     1     111.775 129.026 136.230  0.00  0.00    +0.000 A 
ATOM      6  C   UNL     1     112.449 128.749 135.842  0.00  0.00    +0.000 A 
ATOM      7  C   UNL     1     111.642 128.825 137.019  0.00  0.00    +0.000 A 
ATOM      8  C   UNL     1     112.183 128.348 137.420  0.00  0.00    +0.000 A 
ATOM      9  C   UNL     1     112.989 128.272 136.243  0.00  0.00    +0.000 A 
ATOM     10  C   UNL     1     112.856 128.072 137.032  0.00  0.00    +0.000 A 
ATOM     11  C   UNL     1     113.426 127.574 137.438  0.00  0.00    +0.000 A 
ATOM     12  C   UNL     1     112.592 127.650 138.665  0.00  0.00    +0.000 A 
ATOM     13  C   UNL     1     113.294 127.361 138.261  0.00  0.00    +0.000 A 
BRANCH  12  15
ATOM     14  O   UNL     1     112.050 126.850 141.821  0.00  0.00    +0.000 OA
ATOM     15  C   UNL     1     112.457 127.450 139.454  0.00  0.00    +0.000 A 
ATOM     16  C   UNL     1     112.742 127.935 140.057  0.00  0.00    +0.000 A 
ATOM     17  C   UNL     1     112.037 126.765 139.639  0.00  0.00    +0.000 A 
ATOM     18  C   UNL     1     112.606 127.735 140.846  0.00  0.00    +0.000 A 
ATOM     19  C   UNL     1     111.901 126.564 140.428  0.00  0.00    +0.000 A 
ATOM     20  C   UNL     1     112.186 127.050 141.032  0.00  0.00    +0.000 A 
ENDBRANCH  12  15
BRANCH   6  21
ATOM     21  O   UNL     1     112.581 128.950 135.053  0.00  0.00    +0.000 OA
ATOM     22  C   UNL     1     113.200 129.459 134.856  0.00  0.00    +0.000 C 
ENDBRANCH   6  21
ENDBRANCH   1   5
BRANCH   1  31
ATOM     23  O   UNL     1     110.224 128.505 135.669  0.00  0.00    +0.000 OA
ATOM     24  O   UNL     1     108.047 128.655 135.724  0.00  0.00    +0.000 OA
ATOM     25  O   UNL     1     108.474 130.226 135.991  0.00  0.00    +0.000 OA
ATOM     26  O   UNL     1     110.068 130.650 136.044  0.00  0.00    +0.000 OA
ATOM     27  C   UNL     1     108.843 128.866 135.750  0.00  0.00    +0.000 C 
ATOM     28  C   UNL     1     109.057 129.652 135.884  0.00  0.00    +0.000 C 
ATOM     29  C   UNL     1     109.427 128.293 135.643  0.00  0.00    +0.000 C 
ATOM     30  C   UNL     1     109.854 129.864 135.910  0.00  0.00    +0.000 C 
ATOM     31  C   UNL     1     110.437 129.290 135.803  0.00  0.00    +0.000 C 
BRANCH  29  32
ATOM     32  C   UNL     1     109.213 127.508 135.509  0.00  0.00    +0.000 C 
BRANCH  32  33
ATOM     33  O   UNL     1     109.747 126.988 135.154  0.00  0.00    +0.000 OA
BRANCH  33  35
ATOM     34  O   UNL     1     109.076 125.760 134.872  0.00  0.00    +0.000 OA
ATOM     35  C   UNL     1     109.669 126.175 135.266  0.00  0.00    +0.000 C 
BRANCH  35  36
ATOM     36  C   UNL     1     110.185 125.777 135.773  0.00  0.00    +0.000 C 
ATOM     37  C   UNL     1     110.764 125.278 135.464  0.00  0.00    +0.000 C 
BRANCH  37  39
ATOM     38  O   UNL     1     112.826 123.684 137.488  0.00  0.00    +0.000 OA
ATOM     39  C   UNL     1     111.279 124.879 135.971  0.00  0.00    +0.000 A 
ATOM     40  C   UNL     1     112.016 124.631 135.696  0.00  0.00    +0.000 A 
ATOM     41  C   UNL     1     111.058 124.730 136.751  0.00  0.00    +0.000 A 
ATOM     42  C   UNL     1     112.532 124.232 136.201  0.00  0.00    +0.000 A 
ATOM     43  C   UNL     1     111.573 124.331 137.256  0.00  0.00    +0.000 A 
ATOM     44  C   UNL     1     112.310 124.083 136.982  0.00  0.00    +0.000 A 
ENDBRANCH  37  39
ENDBRANCH  35  36
ENDBRANCH  33  35
ENDBRANCH  32  33
ENDBRANCH  29  32
ENDBRANCH   1  31
TORSDOF 9
ENDMDL
MODEL 10
REMARK VINA RESULT:      -9.3      1.847      4.147
REMARK  Name = 44258468
REMARK  9 active torsions:
REMARK  status: ('A' for Active; 'I' for Inactive)
REMARK    1  A    between atoms: O_2  and  C_18
REMARK    2  A    between atoms: O_2  and  C_20
REMARK    3  A    between atoms: O_6  and  C_19
REMARK    4  A    between atoms: O_6  and  C_26
REMARK    5  A    between atoms: O_7  and  C_21
REMARK    6  A    between atoms: C_16  and  C_19
REMARK    7  A    between atoms: C_26  and  C_28
REMARK    8  A    between atoms: C_29  and  C_31
REMARK    9  A    between atoms: C_33  and  C_36
REMARK                            x       y       z     vdW  Elec       q    Type
REMARK                         _______ _______ _______ _____ _____    ______ ____
ROOT
ATOM      1  O   UNL     1     112.730 130.223 138.372  0.00  0.00    +0.000 OA
ENDROOT
BRANCH   1   5
ATOM      2  O   UNL     1     111.639 128.299 136.526  0.00  0.00    +0.000 OA
ATOM      3  O   UNL     1     114.208 129.533 136.026  0.00  0.00    +0.000 OA
ATOM      4  O   UNL     1     113.697 128.574 135.077  0.00  0.00    +0.000 OA
ATOM      5  C   UNL     1     112.800 129.791 137.673  0.00  0.00    +0.000 A 
ATOM      6  C   UNL     1     113.470 129.878 137.199  0.00  0.00    +0.000 A 
ATOM      7  C   UNL     1     112.201 129.270 137.448  0.00  0.00    +0.000 A 
ATOM      8  C   UNL     1     112.270 128.837 136.749  0.00  0.00    +0.000 A 
ATOM      9  C   UNL     1     113.539 129.445 136.500  0.00  0.00    +0.000 A 
ATOM     10  C   UNL     1     112.939 128.925 136.276  0.00  0.00    +0.000 A 
ATOM     11  C   UNL     1     113.024 128.480 135.545  0.00  0.00    +0.000 A 
ATOM     12  C   UNL     1     111.705 127.845 135.800  0.00  0.00    +0.000 A 
ATOM     13  C   UNL     1     112.403 127.937 135.305  0.00  0.00    +0.000 A 
BRANCH  12  15
ATOM     14  O   UNL     1     109.302 125.765 134.912  0.00  0.00    +0.000 OA
ATOM     15  C   UNL     1     111.105 127.326 135.578  0.00  0.00    +0.000 A 
ATOM     16  C   UNL     1     110.753 127.394 134.834  0.00  0.00    +0.000 A 
ATOM     17  C   UNL     1     110.855 126.738 136.099  0.00  0.00    +0.000 A 
ATOM     18  C   UNL     1     110.153 126.874 134.612  0.00  0.00    +0.000 A 
ATOM     19  C   UNL     1     110.254 126.217 135.878  0.00  0.00    +0.000 A 
ATOM     20  C   UNL     1     109.903 126.285 135.134  0.00  0.00    +0.000 A 
ENDBRANCH  12  15
BRANCH   6  21
ATOM     21  O   UNL     1     114.069 130.398 137.424  0.00  0.00    +0.000 OA
ATOM     22  C   UNL     1     114.249 131.050 136.949  0.00  0.00    +0.000 C 
ENDBRANCH   6  21
ENDBRANCH   1   5
BRANCH   1  31
ATOM     23  O   UNL     1     112.893 129.130 139.278  0.00  0.00    +0.000 OA
ATOM     24  O   UNL     1     111.922 128.696 141.184  0.00  0.00    +0.000 OA
ATOM     25  O   UNL     1     111.193 130.120 140.779  0.00  0.00    +0.000 OA
ATOM     26  O   UNL     1     111.597 130.883 139.373  0.00  0.00    +0.000 OA
ATOM     27  C   UNL     1     112.124 129.077 140.481  0.00  0.00    +0.000 C 
ATOM     28  C   UNL     1     111.759 129.790 140.279  0.00  0.00    +0.000 C 
ATOM     29  C   UNL     1     112.691 128.747 139.981  0.00  0.00    +0.000 C 
ATOM     30  C   UNL     1     111.962 130.171 139.576  0.00  0.00    +0.000 C 
ATOM     31  C   UNL     1     112.528 129.841 139.075  0.00  0.00    +0.000 C 
BRANCH  29  32
ATOM     32  C   UNL     1     113.055 128.036 140.183  0.00  0.00    +0.000 C 
BRANCH  32  33
ATOM     33  O   UNL     1     113.542 127.651 139.639  0.00  0.00    +0.000 OA
BRANCH  33  35
ATOM     34  O   UNL     1     114.075 126.614 140.463  0.00  0.00    +0.000 OA
ATOM     35  C   UNL     1     113.740 126.859 139.750  0.00  0.00    +0.000 C 
BRANCH  35  36
ATOM     36  C   UNL     1     113.604 126.310 139.149  0.00  0.00    +0.000 C 
ATOM     37  C   UNL     1     114.152 126.220 138.540  0.00  0.00    +0.000 C 
BRANCH  37  39
ATOM     38  O   UNL     1     113.610 124.027 136.135  0.00  0.00    +0.000 OA
ATOM     39  C   UNL     1     114.016 125.671 137.939  0.00  0.00    +0.000 A 
ATOM     40  C   UNL     1     114.585 125.553 137.353  0.00  0.00    +0.000 A 
ATOM     41  C   UNL     1     113.313 125.242 137.924  0.00  0.00    +0.000 A 
ATOM     42  C   UNL     1     114.450 125.005 136.751  0.00  0.00    +0.000 A 
ATOM     43  C   UNL     1     113.177 124.694 137.323  0.00  0.00    +0.000 A 
ATOM     44  C   UNL     1     113.745 124.575 136.737  0.00  0.00    +0.000 A 
ENDBRANCH  37  39
ENDBRANCH  35  36
ENDBRANCH  33  35
ENDBRANCH  32  33
ENDBRANCH  29  32
ENDBRANCH   1  31
TORSDOF 9
ENDMDL
