MODEL 1
REMARK VINA RESULT:      -8.3      0.000      0.000
REMARK  Name = 131837670
REMARK  4 active torsions:
REMARK  status: ('A' for Active; 'I' for Inactive)
REMARK    1  A    between atoms: S_1  and  O_3
REMARK    2  A    between atoms: O_3  and  C_12
REMARK    3  A    between atoms: O_7  and  C_25
REMARK    4  A    between atoms: C_11  and  C_15
REMARK                            x       y       z     vdW  Elec       q    Type
REMARK                         _______ _______ _______ _____ _____    ______ ____
ROOT
ATOM      1  O   UNL     1     105.680 124.582 148.521  0.00  0.00    +0.000 OA
ATOM      2  O   UNL     1     106.751 125.389 145.801  0.00  0.00    +0.000 OA
ATOM      3  O   UNL     1     108.423 125.283 147.839  0.00  0.00    +0.000 OA
ATOM      4  C   UNL     1     104.660 124.594 147.519  0.00  0.00    +0.000 C 
ATOM      5  C   UNL     1     105.216 124.829 146.957  0.00  0.00    +0.000 C 
ATOM      6  C   UNL     1     104.892 124.471 148.302  0.00  0.00    +0.000 C 
ATOM      7  C   UNL     1     106.003 124.940 147.175  0.00  0.00    +0.000 A 
ATOM      8  C   UNL     1     106.236 124.816 147.958  0.00  0.00    +0.000 A 
ATOM      9  C   UNL     1     106.573 125.184 146.580  0.00  0.00    +0.000 A 
ATOM     10  C   UNL     1     107.053 124.929 148.199  0.00  0.00    +0.000 A 
ATOM     11  C   UNL     1     107.395 125.301 146.802  0.00  0.00    +0.000 A 
ATOM     12  C   UNL     1     107.636 125.172 147.617  0.00  0.00    +0.000 A 
ENDROOT
BRANCH   4  14
ATOM     13  O   UNL     1     103.541 125.764 147.844  0.00  0.00    +0.000 OA
ATOM     14  C   UNL     1     103.873 124.483 147.301  0.00  0.00    +0.000 A 
ATOM     15  C   UNL     1     103.313 125.067 147.462  0.00  0.00    +0.000 A 
ATOM     16  C   UNL     1     103.645 123.788 146.920  0.00  0.00    +0.000 A 
ATOM     17  C   UNL     1     102.526 124.956 147.244  0.00  0.00    +0.000 A 
ATOM     18  C   UNL     1     102.857 123.676 146.701  0.00  0.00    +0.000 A 
ATOM     19  C   UNL     1     102.298 124.261 146.863  0.00  0.00    +0.000 A 
BRANCH  19  20
ATOM     20  O   UNL     1     101.509 124.149 146.644  0.00  0.00    +0.000 OA
ATOM     21  C   UNL     1     101.321 123.623 146.037  0.00  0.00    +0.000 C 
ENDBRANCH  19  20
ENDBRANCH   4  14
BRANCH   5  22
ATOM     22  O   UNL     1     104.984 124.952 146.175  0.00  0.00    +0.000 OA
BRANCH  22  23
ATOM     23  S   UNL     1     105.085 124.810 145.368  0.00  0.00    +0.000 S 
ATOM     24  O   UNL     1     104.911 125.599 145.207  0.00  0.00    +0.000 OA
ATOM     25  O   UNL     1     105.187 124.667 144.562  0.00  0.00    +0.000 OA
ATOM     26  O   UNL     1     105.260 124.019 145.530  0.00  0.00    +0.000 OA
ENDBRANCH  22  23
ENDBRANCH   5  22
TORSDOF 4
ENDMDL
MODEL 2
REMARK VINA RESULT:      -8.2     11.811     12.752
REMARK  Name = 131837670
REMARK  4 active torsions:
REMARK  status: ('A' for Active; 'I' for Inactive)
REMARK    1  A    between atoms: S_1  and  O_3
REMARK    2  A    between atoms: O_3  and  C_12
REMARK    3  A    between atoms: O_7  and  C_25
REMARK    4  A    between atoms: C_11  and  C_15
REMARK                            x       y       z     vdW  Elec       q    Type
REMARK                         _______ _______ _______ _____ _____    ______ ____
ROOT
ATOM      1  O   UNL     1     112.147 124.288 136.788  0.00  0.00    +0.000 OA
ATOM      2  O   UNL     1     113.956 126.719 136.652  0.00  0.00    +0.000 OA
ATOM      3  O   UNL     1     115.023 124.378 137.240  0.00  0.00    +0.000 OA
ATOM      4  C   UNL     1     111.429 125.480 136.460  0.00  0.00    +0.000 C 
ATOM      5  C   UNL     1     112.131 125.912 136.497  0.00  0.00    +0.000 C 
ATOM      6  C   UNL     1     111.437 124.667 136.605  0.00  0.00    +0.000 C 
ATOM      7  C   UNL     1     112.840 125.534 136.680  0.00  0.00    +0.000 A 
ATOM      8  C   UNL     1     112.848 124.721 136.825  0.00  0.00    +0.000 A 
ATOM      9  C   UNL     1     113.564 125.996 136.716  0.00  0.00    +0.000 A 
ATOM     10  C   UNL     1     113.581 124.314 137.017  0.00  0.00    +0.000 A 
ATOM     11  C   UNL     1     114.306 125.606 136.906  0.00  0.00    +0.000 A 
ATOM     12  C   UNL     1     114.315 124.760 137.057  0.00  0.00    +0.000 A 
ENDROOT
BRANCH   4  14
ATOM     13  O   UNL     1     110.828 125.409 134.924  0.00  0.00    +0.000 OA
ATOM     14  C   UNL     1     110.720 125.858 136.277  0.00  0.00    +0.000 A 
ATOM     15  C   UNL     1     110.418 125.824 135.510  0.00  0.00    +0.000 A 
ATOM     16  C   UNL     1     110.311 126.272 136.862  0.00  0.00    +0.000 A 
ATOM     17  C   UNL     1     109.709 126.202 135.327  0.00  0.00    +0.000 A 
ATOM     18  C   UNL     1     109.600 126.651 136.679  0.00  0.00    +0.000 A 
ATOM     19  C   UNL     1     109.300 126.616 135.912  0.00  0.00    +0.000 A 
BRANCH  19  20
ATOM     20  O   UNL     1     108.590 126.995 135.729  0.00  0.00    +0.000 OA
ATOM     21  C   UNL     1     108.546 127.819 135.750  0.00  0.00    +0.000 C 
ENDBRANCH  19  20
ENDBRANCH   4  14
BRANCH   5  22
ATOM     22  O   UNL     1     112.122 126.724 136.352  0.00  0.00    +0.000 OA
BRANCH  22  23
ATOM     23  S   UNL     1     112.321 127.493 136.577  0.00  0.00    +0.000 S 
ATOM     24  O   UNL     1     112.130 127.314 137.359  0.00  0.00    +0.000 OA
ATOM     25  O   UNL     1     112.519 128.262 136.801  0.00  0.00    +0.000 OA
ATOM     26  O   UNL     1     112.511 127.672 135.794  0.00  0.00    +0.000 OA
ENDBRANCH  22  23
ENDBRANCH   5  22
TORSDOF 4
ENDMDL
MODEL 3
REMARK VINA RESULT:      -8.0      1.428      3.809
REMARK  Name = 131837670
REMARK  4 active torsions:
REMARK  status: ('A' for Active; 'I' for Inactive)
REMARK    1  A    between atoms: S_1  and  O_3
REMARK    2  A    between atoms: O_3  and  C_12
REMARK    3  A    between atoms: O_7  and  C_25
REMARK    4  A    between atoms: C_11  and  C_15
REMARK                            x       y       z     vdW  Elec       q    Type
REMARK                         _______ _______ _______ _____ _____    ______ ____
ROOT
ATOM      1  O   UNL     1     103.944 125.047 147.361  0.00  0.00    +0.000 OA
ATOM      2  O   UNL     1     104.643 123.438 144.888  0.00  0.00    +0.000 OA
ATOM      3  O   UNL     1     102.510 122.753 146.282  0.00  0.00    +0.000 OA
ATOM      4  C   UNL     1     105.121 125.534 146.713  0.00  0.00    +0.000 C 
ATOM      5  C   UNL     1     105.048 124.946 146.139  0.00  0.00    +0.000 C 
ATOM      6  C   UNL     1     104.569 125.585 147.324  0.00  0.00    +0.000 C 
ATOM      7  C   UNL     1     104.424 124.408 146.176  0.00  0.00    +0.000 A 
ATOM      8  C   UNL     1     103.871 124.459 146.787  0.00  0.00    +0.000 A 
ATOM      9  C   UNL     1     104.359 123.800 145.572  0.00  0.00    +0.000 A 
ATOM     10  C   UNL     1     103.216 123.904 146.837  0.00  0.00    +0.000 A 
ATOM     11  C   UNL     1     103.711 123.237 145.605  0.00  0.00    +0.000 A 
ATOM     12  C   UNL     1     103.136 123.290 146.242  0.00  0.00    +0.000 A 
ENDROOT
BRANCH   4  14
ATOM     13  O   UNL     1     106.464 125.304 147.644  0.00  0.00    +0.000 OA
ATOM     14  C   UNL     1     105.745 126.072 146.676  0.00  0.00    +0.000 A 
ATOM     15  C   UNL     1     106.417 125.958 147.141  0.00  0.00    +0.000 A 
ATOM     16  C   UNL     1     105.698 126.724 146.173  0.00  0.00    +0.000 A 
ATOM     17  C   UNL     1     107.041 126.495 147.104  0.00  0.00    +0.000 A 
ATOM     18  C   UNL     1     106.323 127.263 146.136  0.00  0.00    +0.000 A 
ATOM     19  C   UNL     1     106.994 127.148 146.602  0.00  0.00    +0.000 A 
BRANCH  19  20
ATOM     20  O   UNL     1     107.619 127.686 146.565  0.00  0.00    +0.000 OA
ATOM     21  C   UNL     1     107.529 128.393 146.149  0.00  0.00    +0.000 C 
ENDBRANCH  19  20
ENDBRANCH   4  14
BRANCH   5  22
ATOM     22  O   UNL     1     105.600 124.895 145.528  0.00  0.00    +0.000 OA
BRANCH  22  23
ATOM     23  S   UNL     1     105.773 124.844 144.723  0.00  0.00    +0.000 S 
ATOM     24  O   UNL     1     105.174 125.387 144.559  0.00  0.00    +0.000 OA
ATOM     25  O   UNL     1     105.946 124.792 143.918  0.00  0.00    +0.000 OA
ATOM     26  O   UNL     1     106.372 124.300 144.886  0.00  0.00    +0.000 OA
ENDBRANCH  22  23
ENDBRANCH   5  22
TORSDOF 4
ENDMDL
MODEL 4
REMARK VINA RESULT:      -7.9     10.798     12.570
REMARK  Name = 131837670
REMARK  4 active torsions:
REMARK  status: ('A' for Active; 'I' for Inactive)
REMARK    1  A    between atoms: S_1  and  O_3
REMARK    2  A    between atoms: O_3  and  C_12
REMARK    3  A    between atoms: O_7  and  C_25
REMARK    4  A    between atoms: C_11  and  C_15
REMARK                            x       y       z     vdW  Elec       q    Type
REMARK                         _______ _______ _______ _____ _____    ______ ____
ROOT
ATOM      1  O   UNL     1     110.531 126.078 135.223  0.00  0.00    +0.000 OA
ATOM      2  O   UNL     1     109.382 126.577 137.984  0.00  0.00    +0.000 OA
ATOM      3  O   UNL     1     108.004 127.367 135.877  0.00  0.00    +0.000 OA
ATOM      4  C   UNL     1     111.388 125.597 136.261  0.00  0.00    +0.000 C 
ATOM      5  C   UNL     1     110.847 125.857 136.827  0.00  0.00    +0.000 C 
ATOM      6  C   UNL     1     111.230 125.707 135.458  0.00  0.00    +0.000 C 
ATOM      7  C   UNL     1     110.150 126.228 136.592  0.00  0.00    +0.000 A 
ATOM      8  C   UNL     1     109.991 126.338 135.788  0.00  0.00    +0.000 A 
ATOM      9  C   UNL     1     109.594 126.495 137.191  0.00  0.00    +0.000 A 
ATOM     10  C   UNL     1     109.267 126.723 135.530  0.00  0.00    +0.000 A 
ATOM     11  C   UNL     1     108.866 126.882 136.952  0.00  0.00    +0.000 A 
ATOM     12  C   UNL     1     108.701 126.997 136.116  0.00  0.00    +0.000 A 
ENDROOT
BRANCH   4  14
ATOM     13  O   UNL     1     111.496 123.950 136.237  0.00  0.00    +0.000 OA
ATOM     14  C   UNL     1     112.086 125.226 136.496  0.00  0.00    +0.000 A 
ATOM     15  C   UNL     1     112.141 124.403 136.485  0.00  0.00    +0.000 A 
ATOM     16  C   UNL     1     112.730 125.679 136.744  0.00  0.00    +0.000 A 
ATOM     17  C   UNL     1     112.839 124.032 136.720  0.00  0.00    +0.000 A 
ATOM     18  C   UNL     1     113.429 125.308 136.979  0.00  0.00    +0.000 A 
ATOM     19  C   UNL     1     113.483 124.485 136.967  0.00  0.00    +0.000 A 
BRANCH  19  20
ATOM     20  O   UNL     1     114.182 124.114 137.203  0.00  0.00    +0.000 OA
ATOM     21  C   UNL     1     114.833 124.568 137.428  0.00  0.00    +0.000 C 
ENDBRANCH  19  20
ENDBRANCH   4  14
BRANCH   5  22
ATOM     22  O   UNL     1     111.005 125.747 137.629  0.00  0.00    +0.000 OA
BRANCH  22  23
ATOM     23  S   UNL     1     111.069 126.051 138.394  0.00  0.00    +0.000 S 
ATOM     24  O   UNL     1     110.724 125.366 138.695  0.00  0.00    +0.000 OA
ATOM     25  O   UNL     1     111.133 126.356 139.158  0.00  0.00    +0.000 OA
ATOM     26  O   UNL     1     111.415 126.737 138.091  0.00  0.00    +0.000 OA
ENDBRANCH  22  23
ENDBRANCH   5  22
TORSDOF 4
ENDMDL
MODEL 5
REMARK VINA RESULT:      -7.9      1.015      3.884
REMARK  Name = 131837670
REMARK  4 active torsions:
REMARK  status: ('A' for Active; 'I' for Inactive)
REMARK    1  A    between atoms: S_1  and  O_3
REMARK    2  A    between atoms: O_3  and  C_12
REMARK    3  A    between atoms: O_7  and  C_25
REMARK    4  A    between atoms: C_11  and  C_15
REMARK                            x       y       z     vdW  Elec       q    Type
REMARK                         _______ _______ _______ _____ _____    ______ ____
ROOT
ATOM      1  O   UNL     1     103.236 124.734 148.707  0.00  0.00    +0.000 OA
ATOM      2  O   UNL     1     102.745 124.033 145.798  0.00  0.00    +0.000 OA
ATOM      3  O   UNL     1     100.748 123.814 147.508  0.00  0.00    +0.000 OA
ATOM      4  C   UNL     1     104.408 124.902 147.905  0.00  0.00    +0.000 C 
ATOM      5  C   UNL     1     103.986 124.656 147.239  0.00  0.00    +0.000 C 
ATOM      6  C   UNL     1     104.032 124.941 148.639  0.00  0.00    +0.000 C 
ATOM      7  C   UNL     1     103.191 124.450 147.308  0.00  0.00    +0.000 A 
ATOM      8  C   UNL     1     102.816 124.489 148.042  0.00  0.00    +0.000 A 
ATOM      9  C   UNL     1     102.763 124.195 146.607  0.00  0.00    +0.000 A 
ATOM     10  C   UNL     1     101.987 124.276 148.126  0.00  0.00    +0.000 A 
ATOM     11  C   UNL     1     101.934 123.979 146.672  0.00  0.00    +0.000 A 
ATOM     12  C   UNL     1     101.543 124.020 147.437  0.00  0.00    +0.000 A 
ENDROOT
BRANCH   4  14
ATOM     13  O   UNL     1     104.842 126.492 147.812  0.00  0.00    +0.000 OA
ATOM     14  C   UNL     1     105.203 125.108 147.836  0.00  0.00    +0.000 A 
ATOM     15  C   UNL     1     105.421 125.903 147.790  0.00  0.00    +0.000 A 
ATOM     16  C   UNL     1     105.781 124.520 147.814  0.00  0.00    +0.000 A 
ATOM     17  C   UNL     1     106.216 126.109 147.722  0.00  0.00    +0.000 A 
ATOM     18  C   UNL     1     106.578 124.727 147.746  0.00  0.00    +0.000 A 
ATOM     19  C   UNL     1     106.795 125.521 147.700  0.00  0.00    +0.000 A 
BRANCH  19  20
ATOM     20  O   UNL     1     107.591 125.728 147.632  0.00  0.00    +0.000 OA
ATOM     21  C   UNL     1     108.176 125.188 147.847  0.00  0.00    +0.000 C 
ENDBRANCH  19  20
ENDBRANCH   4  14
BRANCH   5  22
ATOM     22  O   UNL     1     104.361 124.617 146.505  0.00  0.00    +0.000 OA
BRANCH  22  23
ATOM     23  S   UNL     1     104.536 124.203 145.813  0.00  0.00    +0.000 S 
ATOM     24  O   UNL     1     104.676 123.522 146.256  0.00  0.00    +0.000 OA
ATOM     25  O   UNL     1     104.711 123.790 145.121  0.00  0.00    +0.000 OA
ATOM     26  O   UNL     1     104.395 124.886 145.371  0.00  0.00    +0.000 OA
ENDBRANCH  22  23
ENDBRANCH   5  22
TORSDOF 4
ENDMDL
MODEL 6
REMARK VINA RESULT:      -7.9     12.267     12.978
REMARK  Name = 131837670
REMARK  4 active torsions:
REMARK  status: ('A' for Active; 'I' for Inactive)
REMARK    1  A    between atoms: S_1  and  O_3
REMARK    2  A    between atoms: O_3  and  C_12
REMARK    3  A    between atoms: O_7  and  C_25
REMARK    4  A    between atoms: C_11  and  C_15
REMARK                            x       y       z     vdW  Elec       q    Type
REMARK                         _______ _______ _______ _____ _____    ______ ____
ROOT
ATOM      1  O   UNL     1     110.642 125.011 135.404  0.00  0.00    +0.000 OA
ATOM      2  O   UNL     1     112.684 125.986 137.423  0.00  0.00    +0.000 OA
ATOM      3  O   UNL     1     112.512 123.397 136.947  0.00  0.00    +0.000 OA
ATOM      4  C   UNL     1     110.618 126.433 135.555  0.00  0.00    +0.000 C 
ATOM      5  C   UNL     1     111.224 126.383 136.113  0.00  0.00    +0.000 C 
ATOM      6  C   UNL     1     110.327 125.746 135.200  0.00  0.00    +0.000 C 
ATOM      7  C   UNL     1     111.539 125.649 136.316  0.00  0.00    +0.000 A 
ATOM      8  C   UNL     1     111.248 124.962 135.962  0.00  0.00    +0.000 A 
ATOM      9  C   UNL     1     112.170 125.610 136.899  0.00  0.00    +0.000 A 
ATOM     10  C   UNL     1     111.568 124.190 136.165  0.00  0.00    +0.000 A 
ATOM     11  C   UNL     1     112.502 124.848 137.115  0.00  0.00    +0.000 A 
ATOM     12  C   UNL     1     112.199 124.133 136.745  0.00  0.00    +0.000 A 
ENDROOT
BRANCH   4  14
ATOM     13  O   UNL     1     109.192 126.932 136.221  0.00  0.00    +0.000 OA
ATOM     14  C   UNL     1     110.303 127.167 135.352  0.00  0.00    +0.000 A 
ATOM     15  C   UNL     1     109.590 127.417 135.684  0.00  0.00    +0.000 A 
ATOM     16  C   UNL     1     110.701 127.652 134.816  0.00  0.00    +0.000 A 
ATOM     17  C   UNL     1     109.276 128.151 135.481  0.00  0.00    +0.000 A 
ATOM     18  C   UNL     1     110.385 128.387 134.612  0.00  0.00    +0.000 A 
ATOM     19  C   UNL     1     109.673 128.636 134.945  0.00  0.00    +0.000 A 
BRANCH  19  20
ATOM     20  O   UNL     1     109.358 129.372 134.741  0.00  0.00    +0.000 OA
ATOM     21  C   UNL     1     109.792 130.059 134.882  0.00  0.00    +0.000 C 
ENDBRANCH  19  20
ENDBRANCH   4  14
BRANCH   5  22
ATOM     22  O   UNL     1     111.515 127.069 136.468  0.00  0.00    +0.000 OA
BRANCH  22  23
ATOM     23  S   UNL     1     112.152 127.544 136.688  0.00  0.00    +0.000 S 
ATOM     24  O   UNL     1     112.511 127.403 135.960  0.00  0.00    +0.000 OA
ATOM     25  O   UNL     1     112.788 128.020 136.910  0.00  0.00    +0.000 OA
ATOM     26  O   UNL     1     111.792 127.686 137.418  0.00  0.00    +0.000 OA
ENDBRANCH  22  23
ENDBRANCH   5  22
TORSDOF 4
ENDMDL
MODEL 7
REMARK VINA RESULT:      -7.9      8.449      9.492
REMARK  Name = 131837670
REMARK  4 active torsions:
REMARK  status: ('A' for Active; 'I' for Inactive)
REMARK    1  A    between atoms: S_1  and  O_3
REMARK    2  A    between atoms: O_3  and  C_12
REMARK    3  A    between atoms: O_7  and  C_25
REMARK    4  A    between atoms: C_11  and  C_15
REMARK                            x       y       z     vdW  Elec       q    Type
REMARK                         _______ _______ _______ _____ _____    ______ ____
ROOT
ATOM      1  O   UNL     1     101.180 131.824 141.913  0.00  0.00    +0.000 OA
ATOM      2  O   UNL     1     103.411 133.683 141.041  0.00  0.00    +0.000 OA
ATOM      3  O   UNL     1     101.079 134.726 141.699  0.00  0.00    +0.000 OA
ATOM      4  C   UNL     1     102.379 131.116 141.589  0.00  0.00    +0.000 C 
ATOM      5  C   UNL     1     102.751 131.830 141.409  0.00  0.00    +0.000 C 
ATOM      6  C   UNL     1     101.592 131.113 141.841  0.00  0.00    +0.000 C 
ATOM      7  C   UNL     1     102.338 132.540 141.481  0.00  0.00    +0.000 A 
ATOM      8  C   UNL     1     101.552 132.537 141.733  0.00  0.00    +0.000 A 
ATOM      9  C   UNL     1     102.738 133.277 141.291  0.00  0.00    +0.000 A 
ATOM     10  C   UNL     1     101.111 133.271 141.812  0.00  0.00    +0.000 A 
ATOM     11  C   UNL     1     102.313 134.020 141.364  0.00  0.00    +0.000 A 
ATOM     12  C   UNL     1     101.494 134.017 141.626  0.00  0.00    +0.000 A 
ENDROOT
BRANCH   4  14
ATOM     13  O   UNL     1     102.180 130.179 140.245  0.00  0.00    +0.000 OA
ATOM     14  C   UNL     1     102.791 130.406 141.517  0.00  0.00    +0.000 A 
ATOM     15  C   UNL     1     102.693 129.937 140.846  0.00  0.00    +0.000 A 
ATOM     16  C   UNL     1     103.303 130.164 142.117  0.00  0.00    +0.000 A 
ATOM     17  C   UNL     1     103.105 129.227 140.774  0.00  0.00    +0.000 A 
ATOM     18  C   UNL     1     103.716 129.452 142.046  0.00  0.00    +0.000 A 
ATOM     19  C   UNL     1     103.617 128.984 141.374  0.00  0.00    +0.000 A 
BRANCH  19  20
ATOM     20  O   UNL     1     104.030 128.273 141.302  0.00  0.00    +0.000 OA
ATOM     21  C   UNL     1     104.710 128.145 141.751  0.00  0.00    +0.000 C 
ENDBRANCH  19  20
ENDBRANCH   4  14
BRANCH   5  22
ATOM     22  O   UNL     1     103.536 131.833 141.158  0.00  0.00    +0.000 OA
BRANCH  22  23
ATOM     23  S   UNL     1     104.305 132.128 141.217  0.00  0.00    +0.000 S 
ATOM     24  O   UNL     1     104.248 132.113 142.039  0.00  0.00    +0.000 OA
ATOM     25  O   UNL     1     105.073 132.422 141.274  0.00  0.00    +0.000 OA
ATOM     26  O   UNL     1     104.362 132.142 140.393  0.00  0.00    +0.000 OA
ENDBRANCH  22  23
ENDBRANCH   5  22
TORSDOF 4
ENDMDL
MODEL 8
REMARK VINA RESULT:      -7.8     12.584     13.219
REMARK  Name = 131837670
REMARK  4 active torsions:
REMARK  status: ('A' for Active; 'I' for Inactive)
REMARK    1  A    between atoms: S_1  and  O_3
REMARK    2  A    between atoms: O_3  and  C_12
REMARK    3  A    between atoms: O_7  and  C_25
REMARK    4  A    between atoms: C_11  and  C_15
REMARK                            x       y       z     vdW  Elec       q    Type
REMARK                         _______ _______ _______ _____ _____    ______ ____
ROOT
ATOM      1  O   UNL     1     113.131 126.498 136.642  0.00  0.00    +0.000 OA
ATOM      2  O   UNL     1     110.864 124.600 135.968  0.00  0.00    +0.000 OA
ATOM      3  O   UNL     1     113.094 123.605 136.969  0.00  0.00    +0.000 OA
ATOM      4  C   UNL     1     111.993 127.181 136.110  0.00  0.00    +0.000 C 
ATOM      5  C   UNL     1     111.596 126.461 136.038  0.00  0.00    +0.000 C 
ATOM      6  C   UNL     1     112.761 127.199 136.412  0.00  0.00    +0.000 C 
ATOM      7  C   UNL     1     111.965 125.761 136.267  0.00  0.00    +0.000 A 
ATOM      8  C   UNL     1     112.734 125.779 136.569  0.00  0.00    +0.000 A 
ATOM      9  C   UNL     1     111.541 125.017 136.187  0.00  0.00    +0.000 A 
ATOM     10  C   UNL     1     113.130 125.056 136.812  0.00  0.00    +0.000 A 
ATOM     11  C   UNL     1     111.921 124.284 136.424  0.00  0.00    +0.000 A 
ATOM     12  C   UNL     1     112.721 124.304 136.739  0.00  0.00    +0.000 A 
ENDROOT
BRANCH   4  14
ATOM     13  O   UNL     1     111.308 128.162 137.247  0.00  0.00    +0.000 OA
ATOM     14  C   UNL     1     111.623 127.881 135.881  0.00  0.00    +0.000 A 
ATOM     15  C   UNL     1     111.280 128.372 136.448  0.00  0.00    +0.000 A 
ATOM     16  C   UNL     1     111.595 128.091 135.084  0.00  0.00    +0.000 A 
ATOM     17  C   UNL     1     110.910 129.073 136.219  0.00  0.00    +0.000 A 
ATOM     18  C   UNL     1     111.225 128.792 134.854  0.00  0.00    +0.000 A 
ATOM     19  C   UNL     1     110.883 129.283 135.422  0.00  0.00    +0.000 A 
BRANCH  19  20
ATOM     20  O   UNL     1     110.513 129.984 135.192  0.00  0.00    +0.000 OA
ATOM     21  C   UNL     1     109.817 129.956 134.750  0.00  0.00    +0.000 C 
ENDBRANCH  19  20
ENDBRANCH   4  14
BRANCH   5  22
ATOM     22  O   UNL     1     110.828 126.442 135.736  0.00  0.00    +0.000 OA
BRANCH  22  23
ATOM     23  S   UNL     1     110.269 126.117 135.223  0.00  0.00    +0.000 S 
ATOM     24  O   UNL     1     110.827 126.116 134.616  0.00  0.00    +0.000 OA
ATOM     25  O   UNL     1     109.710 125.793 134.711  0.00  0.00    +0.000 OA
ATOM     26  O   UNL     1     109.711 126.119 135.831  0.00  0.00    +0.000 OA
ENDBRANCH  22  23
ENDBRANCH   5  22
TORSDOF 4
ENDMDL
MODEL 9
REMARK VINA RESULT:      -7.7     10.042     10.941
REMARK  Name = 131837670
REMARK  4 active torsions:
REMARK  status: ('A' for Active; 'I' for Inactive)
REMARK    1  A    between atoms: S_1  and  O_3
REMARK    2  A    between atoms: O_3  and  C_12
REMARK    3  A    between atoms: O_7  and  C_25
REMARK    4  A    between atoms: C_11  and  C_15
REMARK                            x       y       z     vdW  Elec       q    Type
REMARK                         _______ _______ _______ _____ _____    ______ ____
ROOT
ATOM      1  O   UNL     1     113.226 132.016 146.948  0.00  0.00    +0.000 OA
ATOM      2  O   UNL     1     110.803 133.657 147.743  0.00  0.00    +0.000 OA
ATOM      3  O   UNL     1     112.535 132.970 149.611  0.00  0.00    +0.000 OA
ATOM      4  C   UNL     1     112.381 132.310 145.833  0.00  0.00    +0.000 C 
ATOM      5  C   UNL     1     111.869 132.723 146.330  0.00  0.00    +0.000 C 
ATOM      6  C   UNL     1     113.061 131.956 146.142  0.00  0.00    +0.000 C 
ATOM      7  C   UNL     1     112.034 132.783 147.136  0.00  0.00    +0.000 A 
ATOM      8  C   UNL     1     112.714 132.429 147.445  0.00  0.00    +0.000 A 
ATOM      9  C   UNL     1     111.493 133.216 147.644  0.00  0.00    +0.000 A 
ATOM     10  C   UNL     1     112.897 132.484 148.283  0.00  0.00    +0.000 A 
ATOM     11  C   UNL     1     111.660 133.281 148.484  0.00  0.00    +0.000 A 
ATOM     12  C   UNL     1     112.367 132.912 148.806  0.00  0.00    +0.000 A 
ENDROOT
BRANCH   4  14
ATOM     13  O   UNL     1     113.153 133.296 144.757  0.00  0.00    +0.000 OA
ATOM     14  C   UNL     1     112.216 132.251 145.027  0.00  0.00    +0.000 A 
ATOM     15  C   UNL     1     112.601 132.743 144.489  0.00  0.00    +0.000 A 
ATOM     16  C   UNL     1     111.665 131.698 144.759  0.00  0.00    +0.000 A 
ATOM     17  C   UNL     1     112.436 132.683 143.683  0.00  0.00    +0.000 A 
ATOM     18  C   UNL     1     111.499 131.638 143.953  0.00  0.00    +0.000 A 
ATOM     19  C   UNL     1     111.885 132.131 143.415  0.00  0.00    +0.000 A 
BRANCH  19  20
ATOM     20  O   UNL     1     111.719 132.071 142.609  0.00  0.00    +0.000 OA
ATOM     21  C   UNL     1     111.435 131.362 142.298  0.00  0.00    +0.000 C 
ENDBRANCH  19  20
ENDBRANCH   4  14
BRANCH   5  22
ATOM     22  O   UNL     1     111.191 133.077 146.022  0.00  0.00    +0.000 OA
BRANCH  22  23
ATOM     23  S   UNL     1     110.379 133.223 146.061  0.00  0.00    +0.000 S 
ATOM     24  O   UNL     1     110.243 132.427 146.226  0.00  0.00    +0.000 OA
ATOM     25  O   UNL     1     109.569 133.371 146.100  0.00  0.00    +0.000 OA
ATOM     26  O   UNL     1     110.516 134.020 145.896  0.00  0.00    +0.000 OA
ENDBRANCH  22  23
ENDBRANCH   5  22
TORSDOF 4
ENDMDL
MODEL 10
REMARK VINA RESULT:      -7.7      1.056      2.166
REMARK  Name = 131837670
REMARK  4 active torsions:
REMARK  status: ('A' for Active; 'I' for Inactive)
REMARK    1  A    between atoms: S_1  and  O_3
REMARK    2  A    between atoms: O_3  and  C_12
REMARK    3  A    between atoms: O_7  and  C_25
REMARK    4  A    between atoms: C_11  and  C_15
REMARK                            x       y       z     vdW  Elec       q    Type
REMARK                         _______ _______ _______ _____ _____    ______ ____
ROOT
ATOM      1  O   UNL     1     105.857 124.939 145.967  0.00  0.00    +0.000 OA
ATOM      2  O   UNL     1     106.246 124.982 148.974  0.00  0.00    +0.000 OA
ATOM      3  O   UNL     1     108.281 125.631 147.425  0.00  0.00    +0.000 OA
ATOM      4  C   UNL     1     104.670 124.566 146.672  0.00  0.00    +0.000 C 
ATOM      5  C   UNL     1     105.066 124.667 147.389  0.00  0.00    +0.000 C 
ATOM      6  C   UNL     1     105.066 124.702 145.960  0.00  0.00    +0.000 C 
ATOM      7  C   UNL     1     105.855 124.903 147.396  0.00  0.00    +0.000 A 
ATOM      8  C   UNL     1     106.251 125.040 146.684  0.00  0.00    +0.000 A 
ATOM      9  C   UNL     1     106.256 125.005 148.150  0.00  0.00    +0.000 A 
ATOM     10  C   UNL     1     107.075 125.287 146.677  0.00  0.00    +0.000 A 
ATOM     11  C   UNL     1     107.078 125.252 148.162  0.00  0.00    +0.000 A 
ATOM     12  C   UNL     1     107.491 125.393 147.421  0.00  0.00    +0.000 A 
ENDROOT
BRANCH   4  14
ATOM     13  O   UNL     1     104.278 123.014 146.270  0.00  0.00    +0.000 OA
ATOM     14  C   UNL     1     103.881 124.329 146.665  0.00  0.00    +0.000 A 
ATOM     15  C   UNL     1     103.683 123.553 146.464  0.00  0.00    +0.000 A 
ATOM     16  C   UNL     1     103.287 124.868 146.859  0.00  0.00    +0.000 A 
ATOM     17  C   UNL     1     102.894 123.316 146.458  0.00  0.00    +0.000 A 
ATOM     18  C   UNL     1     102.496 124.631 146.853  0.00  0.00    +0.000 A 
ATOM     19  C   UNL     1     102.300 123.855 146.652  0.00  0.00    +0.000 A 
BRANCH  19  20
ATOM     20  O   UNL     1     101.509 123.618 146.646  0.00  0.00    +0.000 OA
ATOM     21  C   UNL     1     101.032 123.794 145.996  0.00  0.00    +0.000 C 
ENDBRANCH  19  20
ENDBRANCH   4  14
BRANCH   5  22
ATOM     22  O   UNL     1     104.670 124.530 148.100  0.00  0.00    +0.000 OA
BRANCH  22  23
ATOM     23  S   UNL     1     104.448 124.781 148.854  0.00  0.00    +0.000 S 
ATOM     24  O   UNL     1     104.317 125.541 148.563  0.00  0.00    +0.000 OA
ATOM     25  O   UNL     1     104.226 125.031 149.608  0.00  0.00    +0.000 OA
ATOM     26  O   UNL     1     104.580 124.020 149.145  0.00  0.00    +0.000 OA
ENDBRANCH  22  23
ENDBRANCH   5  22
TORSDOF 4
ENDMDL
