MODEL 1
REMARK VINA RESULT:     -10.9      0.000      0.000
REMARK  Name = 44257817
REMARK  7 active torsions:
REMARK  status: ('A' for Active; 'I' for Inactive)
REMARK    1  A    between atoms: O_3  and  C_25
REMARK    2  A    between atoms: O_3  and  C_30
REMARK    3  A    between atoms: O_5  and  C_27
REMARK    4  A    between atoms: O_5  and  C_31
REMARK    5  A    between atoms: C_24  and  C_28
REMARK    6  A    between atoms: C_26  and  C_29
REMARK    7  A    between atoms: C_38  and  C_40
REMARK                            x       y       z     vdW  Elec       q    Type
REMARK                         _______ _______ _______ _____ _____    ______ ____
ROOT
ATOM      1  O   UNL     1     110.292 128.348 136.033  0.00  0.00    +0.000 OA
ATOM      2  O   UNL     1     107.862 129.892 135.790  0.00  0.00    +0.000 OA
ATOM      3  O   UNL     1     107.846 128.454 135.673  0.00  0.00    +0.000 OA
ATOM      4  C   UNL     1     109.969 130.556 136.160  0.00  0.00    +0.000 A 
ATOM      5  C   UNL     1     110.366 129.793 136.159  0.00  0.00    +0.000 A 
ATOM      6  C   UNL     1     109.120 130.592 136.035  0.00  0.00    +0.000 A 
ATOM      7  C   UNL     1     109.907 129.077 136.033  0.00  0.00    +0.000 A 
ATOM      8  C   UNL     1     109.092 129.113 135.913  0.00  0.00    +0.000 A 
ATOM      9  C   UNL     1     108.678 129.866 135.911  0.00  0.00    +0.000 A 
ATOM     10  C   UNL     1     109.863 127.654 135.913  0.00  0.00    +0.000 A 
ATOM     11  C   UNL     1     108.661 128.418 135.793  0.00  0.00    +0.000 A 
ATOM     12  C   UNL     1     109.047 127.690 135.793  0.00  0.00    +0.000 A 
ENDROOT
BRANCH  10  16
ATOM     13  C   UNL     1     111.019 125.466 135.912  0.00  0.00    +0.000 A 
ATOM     14  C   UNL     1     110.630 125.727 136.591  0.00  0.00    +0.000 A 
ATOM     15  C   UNL     1     111.023 125.935 135.233  0.00  0.00    +0.000 A 
ATOM     16  C   UNL     1     110.248 126.925 135.913  0.00  0.00    +0.000 A 
ATOM     17  C   UNL     1     110.244 126.456 136.592  0.00  0.00    +0.000 A 
ATOM     18  C   UNL     1     110.637 126.665 135.233  0.00  0.00    +0.000 A 
BRANCH  13  19
ATOM     19  O   UNL     1     111.405 124.737 135.911  0.00  0.00    +0.000 OA
BRANCH  19  28
ATOM     20  O   UNL     1     112.677 125.276 136.278  0.00  0.00    +0.000 OA
ATOM     21  O   UNL     1     113.237 123.163 137.437  0.00  0.00    +0.000 OA
ATOM     22  O   UNL     1     114.322 124.406 137.417  0.00  0.00    +0.000 OA
ATOM     23  O   UNL     1     111.779 123.329 136.684  0.00  0.00    +0.000 OA
ATOM     24  C   UNL     1     113.050 123.867 137.051  0.00  0.00    +0.000 C 
ATOM     25  C   UNL     1     113.593 124.489 137.041  0.00  0.00    +0.000 C 
ATOM     26  C   UNL     1     112.321 123.950 136.674  0.00  0.00    +0.000 C 
ATOM     27  C   UNL     1     113.406 125.193 136.654  0.00  0.00    +0.000 C 
ATOM     28  C   UNL     1     112.134 124.655 136.288  0.00  0.00    +0.000 C 
BRANCH  27  31
ATOM     29  O   UNL     1     114.520 125.854 136.051  0.00  0.00    +0.000 OA
ATOM     30  O   UNL     1     113.917 126.398 137.227  0.00  0.00    +0.000 OA
ATOM     31  C   UNL     1     113.948 125.815 136.644  0.00  0.00    +0.000 C 
ENDBRANCH  27  31
ENDBRANCH  19  28
ENDBRANCH  13  19
ENDBRANCH  10  16
BRANCH   4  32
ATOM     32  O   UNL     1     110.402 131.248 136.281  0.00  0.00    +0.000 OA
BRANCH  32  41
ATOM     33  O   UNL     1     110.449 131.192 137.708  0.00  0.00    +0.000 OA
ATOM     34  O   UNL     1     110.150 133.647 137.814  0.00  0.00    +0.000 OA
ATOM     35  O   UNL     1     110.296 132.772 139.205  0.00  0.00    +0.000 OA
ATOM     36  O   UNL     1     110.203 132.885 136.352  0.00  0.00    +0.000 OA
ATOM     37  C   UNL     1     110.249 132.828 137.779  0.00  0.00    +0.000 C 
ATOM     38  C   UNL     1     110.322 132.391 138.474  0.00  0.00    +0.000 C 
ATOM     39  C   UNL     1     110.276 132.447 137.047  0.00  0.00    +0.000 C 
ATOM     40  C   UNL     1     110.422 131.573 138.439  0.00  0.00    +0.000 C 
ATOM     41  C   UNL     1     110.375 131.629 137.011  0.00  0.00    +0.000 C 
BRANCH  40  44
ATOM     42  O   UNL     1     109.822 130.849 139.515  0.00  0.00    +0.000 OA
ATOM     43  O   UNL     1     111.242 130.985 139.450  0.00  0.00    +0.000 OA
ATOM     44  C   UNL     1     110.495 131.136 139.134  0.00  0.00    +0.000 C 
ENDBRANCH  40  44
ENDBRANCH  32  41
ENDBRANCH   4  32
TORSDOF 7
ENDMDL
MODEL 2
REMARK VINA RESULT:     -10.7      0.914      1.502
REMARK  Name = 44257817
REMARK  7 active torsions:
REMARK  status: ('A' for Active; 'I' for Inactive)
REMARK    1  A    between atoms: O_3  and  C_25
REMARK    2  A    between atoms: O_3  and  C_30
REMARK    3  A    between atoms: O_5  and  C_27
REMARK    4  A    between atoms: O_5  and  C_31
REMARK    5  A    between atoms: C_24  and  C_28
REMARK    6  A    between atoms: C_26  and  C_29
REMARK    7  A    between atoms: C_38  and  C_40
REMARK                            x       y       z     vdW  Elec       q    Type
REMARK                         _______ _______ _______ _____ _____    ______ ____
ROOT
ATOM      1  O   UNL     1     110.106 128.464 136.636  0.00  0.00    +0.000 OA
ATOM      2  O   UNL     1     107.828 130.140 136.047  0.00  0.00    +0.000 OA
ATOM      3  O   UNL     1     107.937 128.812 135.495  0.00  0.00    +0.000 OA
ATOM      4  C   UNL     1     109.631 130.540 137.315  0.00  0.00    +0.000 A 
ATOM      5  C   UNL     1     110.046 129.793 137.218  0.00  0.00    +0.000 A 
ATOM      6  C   UNL     1     108.878 130.660 136.919  0.00  0.00    +0.000 A 
ATOM      7  C   UNL     1     109.703 129.178 136.726  0.00  0.00    +0.000 A 
ATOM      8  C   UNL     1     108.980 129.294 136.346  0.00  0.00    +0.000 A 
ATOM      9  C   UNL     1     108.550 130.033 136.431  0.00  0.00    +0.000 A 
ATOM     10  C   UNL     1     109.786 127.866 136.166  0.00  0.00    +0.000 A 
ATOM     11  C   UNL     1     108.660 128.695 135.875  0.00  0.00    +0.000 A 
ATOM     12  C   UNL     1     109.063 127.982 135.786  0.00  0.00    +0.000 A 
ENDROOT
BRANCH  10  16
ATOM     13  C   UNL     1     110.995 125.723 135.898  0.00  0.00    +0.000 A 
ATOM     14  C   UNL     1     111.057 126.307 135.319  0.00  0.00    +0.000 A 
ATOM     15  C   UNL     1     110.529 125.853 136.567  0.00  0.00    +0.000 A 
ATOM     16  C   UNL     1     110.189 127.151 136.077  0.00  0.00    +0.000 A 
ATOM     17  C   UNL     1     110.655 127.021 135.408  0.00  0.00    +0.000 A 
ATOM     18  C   UNL     1     110.126 126.567 136.657  0.00  0.00    +0.000 A 
BRANCH  13  19
ATOM     19  O   UNL     1     111.398 125.009 135.809  0.00  0.00    +0.000 OA
BRANCH  19  28
ATOM     20  O   UNL     1     112.645 125.489 136.317  0.00  0.00    +0.000 OA
ATOM     21  O   UNL     1     113.123 123.251 137.257  0.00  0.00    +0.000 OA
ATOM     22  O   UNL     1     114.210 124.477 137.452  0.00  0.00    +0.000 OA
ATOM     23  O   UNL     1     111.717 123.517 136.436  0.00  0.00    +0.000 OA
ATOM     24  C   UNL     1     112.964 123.997 136.944  0.00  0.00    +0.000 C 
ATOM     25  C   UNL     1     113.507 124.610 137.041  0.00  0.00    +0.000 C 
ATOM     26  C   UNL     1     112.261 124.130 136.533  0.00  0.00    +0.000 C 
ATOM     27  C   UNL     1     113.348 125.356 136.727  0.00  0.00    +0.000 C 
ATOM     28  C   UNL     1     112.101 124.876 136.219  0.00  0.00    +0.000 C 
BRANCH  27  31
ATOM     29  O   UNL     1     113.839 126.467 137.480  0.00  0.00    +0.000 OA
ATOM     30  O   UNL     1     114.485 126.085 136.264  0.00  0.00    +0.000 OA
ATOM     31  C   UNL     1     113.890 125.969 136.824  0.00  0.00    +0.000 C 
ENDBRANCH  27  31
ENDBRANCH  19  28
ENDBRANCH  13  19
ENDBRANCH  10  16
BRANCH   4  32
ATOM     32  O   UNL     1     109.953 131.136 137.786  0.00  0.00    +0.000 OA
BRANCH  32  41
ATOM     33  O   UNL     1     109.140 130.867 138.929  0.00  0.00    +0.000 OA
ATOM     34  O   UNL     1     111.007 131.530 140.413  0.00  0.00    +0.000 OA
ATOM     35  O   UNL     1     109.572 131.040 141.061  0.00  0.00    +0.000 OA
ATOM     36  O   UNL     1     111.198 131.578 138.774  0.00  0.00    +0.000 OA
ATOM     37  C   UNL     1     110.385 131.309 139.918  0.00  0.00    +0.000 C 
ATOM     38  C   UNL     1     109.667 131.064 140.242  0.00  0.00    +0.000 C 
ATOM     39  C   UNL     1     110.480 131.333 139.098  0.00  0.00    +0.000 C 
ATOM     40  C   UNL     1     109.044 130.842 139.748  0.00  0.00    +0.000 C 
ATOM     41  C   UNL     1     109.857 131.112 138.604  0.00  0.00    +0.000 C 
BRANCH  40  44
ATOM     42  O   UNL     1     107.731 131.148 140.221  0.00  0.00    +0.000 OA
ATOM     43  O   UNL     1     108.205 129.801 140.249  0.00  0.00    +0.000 OA
ATOM     44  C   UNL     1     108.327 130.597 140.073  0.00  0.00    +0.000 C 
ENDBRANCH  40  44
ENDBRANCH  32  41
ENDBRANCH   4  32
TORSDOF 7
ENDMDL
MODEL 3
REMARK VINA RESULT:     -10.4      8.023     11.027
REMARK  Name = 44257817
REMARK  7 active torsions:
REMARK  status: ('A' for Active; 'I' for Inactive)
REMARK    1  A    between atoms: O_3  and  C_25
REMARK    2  A    between atoms: O_3  and  C_30
REMARK    3  A    between atoms: O_5  and  C_27
REMARK    4  A    between atoms: O_5  and  C_31
REMARK    5  A    between atoms: C_24  and  C_28
REMARK    6  A    between atoms: C_26  and  C_29
REMARK    7  A    between atoms: C_38  and  C_40
REMARK                            x       y       z     vdW  Elec       q    Type
REMARK                         _______ _______ _______ _____ _____    ______ ____
ROOT
ATOM      1  O   UNL     1     104.973 127.634 142.574  0.00  0.00    +0.000 OA
ATOM      2  O   UNL     1     107.839 127.277 142.670  0.00  0.00    +0.000 OA
ATOM      3  O   UNL     1     107.258 128.525 142.236  0.00  0.00    +0.000 OA
ATOM      4  C   UNL     1     106.184 125.858 143.187  0.00  0.00    +0.000 A 
ATOM      5  C   UNL     1     105.505 126.358 143.018  0.00  0.00    +0.000 A 
ATOM      6  C   UNL     1     106.977 126.168 143.070  0.00  0.00    +0.000 A 
ATOM      7  C   UNL     1     105.629 127.160 142.735  0.00  0.00    +0.000 A 
ATOM      8  C   UNL     1     106.390 127.456 142.622  0.00  0.00    +0.000 A 
ATOM      9  C   UNL     1     107.081 126.972 142.785  0.00  0.00    +0.000 A 
ATOM     10  C   UNL     1     105.079 128.406 142.301  0.00  0.00    +0.000 A 
ATOM     11  C   UNL     1     106.497 128.228 142.349  0.00  0.00    +0.000 A 
ATOM     12  C   UNL     1     105.841 128.702 142.189  0.00  0.00    +0.000 A 
ENDROOT
BRANCH  10  16
ATOM     13  C   UNL     1     103.114 129.830 141.819  0.00  0.00    +0.000 A 
ATOM     14  C   UNL     1     103.473 129.860 142.561  0.00  0.00    +0.000 A 
ATOM     15  C   UNL     1     103.409 129.325 141.238  0.00  0.00    +0.000 A 
ATOM     16  C   UNL     1     104.424 128.881 142.141  0.00  0.00    +0.000 A 
ATOM     17  C   UNL     1     104.128 129.386 142.722  0.00  0.00    +0.000 A 
ATOM     18  C   UNL     1     104.065 128.850 141.398  0.00  0.00    +0.000 A 
BRANCH  13  19
ATOM     19  O   UNL     1     102.458 130.304 141.659  0.00  0.00    +0.000 OA
BRANCH  19  28
ATOM     20  O   UNL     1     103.218 131.361 141.067  0.00  0.00    +0.000 OA
ATOM     21  O   UNL     1     101.543 133.004 141.854  0.00  0.00    +0.000 OA
ATOM     22  O   UNL     1     102.860 133.513 140.999  0.00  0.00    +0.000 OA
ATOM     23  O   UNL     1     101.342 131.400 142.183  0.00  0.00    +0.000 OA
ATOM     24  C   UNL     1     102.101 132.456 141.591  0.00  0.00    +0.000 C 
ATOM     25  C   UNL     1     102.759 132.711 141.164  0.00  0.00    +0.000 C 
ATOM     26  C   UNL     1     102.001 131.654 141.756  0.00  0.00    +0.000 C 
ATOM     27  C   UNL     1     103.318 132.163 140.902  0.00  0.00    +0.000 C 
ATOM     28  C   UNL     1     102.559 131.106 141.494  0.00  0.00    +0.000 C 
BRANCH  27  31
ATOM     29  O   UNL     1     103.959 132.416 139.650  0.00  0.00    +0.000 OA
ATOM     30  O   UNL     1     104.653 132.670 140.873  0.00  0.00    +0.000 OA
ATOM     31  C   UNL     1     103.976 132.416 140.475  0.00  0.00    +0.000 C 
ENDBRANCH  27  31
ENDBRANCH  19  28
ENDBRANCH  13  19
ENDBRANCH  10  16
BRANCH   4  32
ATOM     32  O   UNL     1     106.075 125.088 143.460  0.00  0.00    +0.000 OA
BRANCH  32  41
ATOM     33  O   UNL     1     106.364 125.348 144.835  0.00  0.00    +0.000 OA
ATOM     34  O   UNL     1     104.604 123.743 145.509  0.00  0.00    +0.000 OA
ATOM     35  O   UNL     1     105.480 124.538 146.658  0.00  0.00    +0.000 OA
ATOM     36  O   UNL     1     104.902 124.018 143.909  0.00  0.00    +0.000 OA
ATOM     37  C   UNL     1     105.191 124.278 145.284  0.00  0.00    +0.000 C 
ATOM     38  C   UNL     1     105.629 124.676 145.859  0.00  0.00    +0.000 C 
ATOM     39  C   UNL     1     105.340 124.416 144.484  0.00  0.00    +0.000 C 
ATOM     40  C   UNL     1     106.216 125.211 145.634  0.00  0.00    +0.000 C 
ATOM     41  C   UNL     1     105.927 124.951 144.259  0.00  0.00    +0.000 C 
BRANCH  40  44
ATOM     42  O   UNL     1     106.377 126.320 146.521  0.00  0.00    +0.000 OA
ATOM     43  O   UNL     1     107.369 125.293 146.474  0.00  0.00    +0.000 OA
ATOM     44  C   UNL     1     106.653 125.608 146.209  0.00  0.00    +0.000 C 
ENDBRANCH  40  44
ENDBRANCH  32  41
ENDBRANCH   4  32
TORSDOF 7
ENDMDL
MODEL 4
REMARK VINA RESULT:     -10.4      1.628      3.191
REMARK  Name = 44257817
REMARK  7 active torsions:
REMARK  status: ('A' for Active; 'I' for Inactive)
REMARK    1  A    between atoms: O_3  and  C_25
REMARK    2  A    between atoms: O_3  and  C_30
REMARK    3  A    between atoms: O_5  and  C_27
REMARK    4  A    between atoms: O_5  and  C_31
REMARK    5  A    between atoms: C_24  and  C_28
REMARK    6  A    between atoms: C_26  and  C_29
REMARK    7  A    between atoms: C_38  and  C_40
REMARK                            x       y       z     vdW  Elec       q    Type
REMARK                         _______ _______ _______ _____ _____    ______ ____
ROOT
ATOM      1  O   UNL     1     111.997 129.235 137.264  0.00  0.00    +0.000 OA
ATOM      2  O   UNL     1     112.376 132.096 137.139  0.00  0.00    +0.000 OA
ATOM      3  O   UNL     1     113.431 131.189 136.759  0.00  0.00    +0.000 OA
ATOM      4  C   UNL     1     110.593 130.898 137.773  0.00  0.00    +0.000 A 
ATOM      5  C   UNL     1     110.903 130.104 137.659  0.00  0.00    +0.000 A 
ATOM      6  C   UNL     1     111.091 131.576 137.597  0.00  0.00    +0.000 A 
ATOM      7  C   UNL     1     111.705 129.999 137.372  0.00  0.00    +0.000 A 
ATOM      8  C   UNL     1     112.183 130.651 137.203  0.00  0.00    +0.000 A 
ATOM      9  C   UNL     1     111.891 131.451 137.310  0.00  0.00    +0.000 A 
ATOM     10  C   UNL     1     112.767 129.122 136.989  0.00  0.00    +0.000 A 
ATOM     11  C   UNL     1     112.953 130.538 136.927  0.00  0.00    +0.000 A 
ATOM     12  C   UNL     1     113.244 129.774 136.820  0.00  0.00    +0.000 A 
ENDROOT
BRANCH  10  16
ATOM     13  C   UNL     1     113.642 126.830 136.667  0.00  0.00    +0.000 A 
ATOM     14  C   UNL     1     113.522 127.123 137.429  0.00  0.00    +0.000 A 
ATOM     15  C   UNL     1     113.471 127.302 136.012  0.00  0.00    +0.000 A 
ATOM     16  C   UNL     1     113.058 128.358 136.882  0.00  0.00    +0.000 A 
ATOM     17  C   UNL     1     113.230 127.886 137.537  0.00  0.00    +0.000 A 
ATOM     18  C   UNL     1     113.179 128.066 136.119  0.00  0.00    +0.000 A 
BRANCH  13  19
ATOM     19  O   UNL     1     113.934 126.066 136.560  0.00  0.00    +0.000 OA
BRANCH  19  28
ATOM     20  O   UNL     1     112.638 125.479 136.420  0.00  0.00    +0.000 OA
ATOM     21  O   UNL     1     113.512 123.342 137.311  0.00  0.00    +0.000 OA
ATOM     22  O   UNL     1     111.925 123.467 136.875  0.00  0.00    +0.000 OA
ATOM     23  O   UNL     1     114.516 124.642 137.154  0.00  0.00    +0.000 OA
ATOM     24  C   UNL     1     113.220 124.054 137.014  0.00  0.00    +0.000 C 
ATOM     25  C   UNL     1     112.427 124.117 136.796  0.00  0.00    +0.000 C 
ATOM     26  C   UNL     1     113.722 124.704 136.935  0.00  0.00    +0.000 C 
ATOM     27  C   UNL     1     112.136 124.829 136.499  0.00  0.00    +0.000 C 
ATOM     28  C   UNL     1     113.431 125.416 136.638  0.00  0.00    +0.000 C 
BRANCH  27  31
ATOM     29  O   UNL     1     111.115 124.732 135.504  0.00  0.00    +0.000 OA
ATOM     30  O   UNL     1     110.779 125.116 136.838  0.00  0.00    +0.000 OA
ATOM     31  C   UNL     1     111.343 124.892 136.280  0.00  0.00    +0.000 C 
ENDBRANCH  27  31
ENDBRANCH  19  28
ENDBRANCH  13  19
ENDBRANCH  10  16
BRANCH   4  32
ATOM     32  O   UNL     1     109.823 131.008 138.049  0.00  0.00    +0.000 OA
BRANCH  32  41
ATOM     33  O   UNL     1     109.165 130.555 136.863  0.00  0.00    +0.000 OA
ATOM     34  O   UNL     1     107.382 132.236 137.210  0.00  0.00    +0.000 OA
ATOM     35  O   UNL     1     107.320 131.224 135.910  0.00  0.00    +0.000 OA
ATOM     36  O   UNL     1     108.634 132.129 138.280  0.00  0.00    +0.000 OA
ATOM     37  C   UNL     1     107.977 131.676 137.095  0.00  0.00    +0.000 C 
ATOM     38  C   UNL     1     107.946 131.169 136.445  0.00  0.00    +0.000 C 
ATOM     39  C   UNL     1     108.603 131.622 137.630  0.00  0.00    +0.000 C 
ATOM     40  C   UNL     1     108.540 130.609 136.329  0.00  0.00    +0.000 C 
ATOM     41  C   UNL     1     109.198 131.062 137.514  0.00  0.00    +0.000 C 
BRANCH  40  44
ATOM     42  O   UNL     1     108.848 130.329 134.962  0.00  0.00    +0.000 OA
ATOM     43  O   UNL     1     108.136 129.370 135.745  0.00  0.00    +0.000 OA
ATOM     44  C   UNL     1     108.508 130.103 135.679  0.00  0.00    +0.000 C 
ENDBRANCH  40  44
ENDBRANCH  32  41
ENDBRANCH   4  32
TORSDOF 7
ENDMDL
MODEL 5
REMARK VINA RESULT:     -10.3      1.253      6.514
REMARK  Name = 44257817
REMARK  7 active torsions:
REMARK  status: ('A' for Active; 'I' for Inactive)
REMARK    1  A    between atoms: O_3  and  C_25
REMARK    2  A    between atoms: O_3  and  C_30
REMARK    3  A    between atoms: O_5  and  C_27
REMARK    4  A    between atoms: O_5  and  C_31
REMARK    5  A    between atoms: C_24  and  C_28
REMARK    6  A    between atoms: C_26  and  C_29
REMARK    7  A    between atoms: C_38  and  C_40
REMARK                            x       y       z     vdW  Elec       q    Type
REMARK                         _______ _______ _______ _____ _____    ______ ____
ROOT
ATOM      1  O   UNL     1     110.318 127.655 136.596  0.00  0.00    +0.000 OA
ATOM      2  O   UNL     1     110.427 125.099 135.254  0.00  0.00    +0.000 OA
ATOM      3  O   UNL     1     109.842 126.251 134.613  0.00  0.00    +0.000 OA
ATOM      4  C   UNL     1     111.144 125.697 137.290  0.00  0.00    +0.000 A 
ATOM      5  C   UNL     1     110.919 126.527 137.286  0.00  0.00    +0.000 A 
ATOM      6  C   UNL     1     110.978 125.210 136.602  0.00  0.00    +0.000 A 
ATOM      7  C   UNL     1     110.532 126.858 136.594  0.00  0.00    +0.000 A 
ATOM      8  C   UNL     1     110.373 126.390 135.933  0.00  0.00    +0.000 A 
ATOM      9  C   UNL     1     110.590 125.559 135.919  0.00  0.00    +0.000 A 
ATOM     10  C   UNL     1     109.946 127.984 135.937  0.00  0.00    +0.000 A 
ATOM     11  C   UNL     1     110.001 126.719 135.274  0.00  0.00    +0.000 A 
ATOM     12  C   UNL     1     109.787 127.516 135.276  0.00  0.00    +0.000 A 
ENDROOT
BRANCH  10  16
ATOM     13  C   UNL     1     109.305 130.374 135.943  0.00  0.00    +0.000 A 
ATOM     14  C   UNL     1     110.030 130.142 135.624  0.00  0.00    +0.000 A 
ATOM     15  C   UNL     1     108.794 129.809 136.260  0.00  0.00    +0.000 A 
ATOM     16  C   UNL     1     109.733 128.781 135.939  0.00  0.00    +0.000 A 
ATOM     17  C   UNL     1     110.244 129.346 135.622  0.00  0.00    +0.000 A 
ATOM     18  C   UNL     1     109.007 129.012 136.258  0.00  0.00    +0.000 A 
BRANCH  13  19
ATOM     19  O   UNL     1     109.091 131.171 135.944  0.00  0.00    +0.000 OA
BRANCH  19  28
ATOM     20  O   UNL     1     109.511 131.462 137.279  0.00  0.00    +0.000 OA
ATOM     21  O   UNL     1     110.285 133.696 136.547  0.00  0.00    +0.000 OA
ATOM     22  O   UNL     1     110.447 133.243 138.126  0.00  0.00    +0.000 OA
ATOM     23  O   UNL     1     109.607 132.660 135.457  0.00  0.00    +0.000 OA
ATOM     24  C   UNL     1     110.027 132.952 136.791  0.00  0.00    +0.000 C 
ATOM     25  C   UNL     1     110.108 132.725 137.580  0.00  0.00    +0.000 C 
ATOM     26  C   UNL     1     109.688 132.433 136.246  0.00  0.00    +0.000 C 
ATOM     27  C   UNL     1     109.850 131.980 137.825  0.00  0.00    +0.000 C 
ATOM     28  C   UNL     1     109.430 131.689 136.490  0.00  0.00    +0.000 C 
BRANCH  27  31
ATOM     29  O   UNL     1     109.294 131.828 139.132  0.00  0.00    +0.000 OA
ATOM     30  O   UNL     1     110.650 131.451 138.883  0.00  0.00    +0.000 OA
ATOM     31  C   UNL     1     109.931 131.753 138.613  0.00  0.00    +0.000 C 
ENDBRANCH  27  31
ENDBRANCH  19  28
ENDBRANCH  13  19
ENDBRANCH  10  16
BRANCH   4  32
ATOM     32  O   UNL     1     111.516 125.371 137.950  0.00  0.00    +0.000 OA
BRANCH  32  41
ATOM     33  O   UNL     1     112.885 125.376 137.543  0.00  0.00    +0.000 OA
ATOM     34  O   UNL     1     113.523 126.407 139.700  0.00  0.00    +0.000 OA
ATOM     35  O   UNL     1     114.679 126.069 138.574  0.00  0.00    +0.000 OA
ATOM     36  O   UNL     1     111.941 126.058 139.389  0.00  0.00    +0.000 OA
ATOM     37  C   UNL     1     113.311 126.064 138.981  0.00  0.00    +0.000 C 
ATOM     38  C   UNL     1     113.888 125.894 138.417  0.00  0.00    +0.000 C 
ATOM     39  C   UNL     1     112.519 125.889 138.825  0.00  0.00    +0.000 C 
ATOM     40  C   UNL     1     113.676 125.550 137.698  0.00  0.00    +0.000 C 
ATOM     41  C   UNL     1     112.306 125.545 138.106  0.00  0.00    +0.000 C 
BRANCH  40  44
ATOM     42  O   UNL     1     114.409 125.918 136.528  0.00  0.00    +0.000 OA
ATOM     43  O   UNL     1     114.678 124.675 137.179  0.00  0.00    +0.000 OA
ATOM     44  C   UNL     1     114.254 125.381 137.136  0.00  0.00    +0.000 C 
ENDBRANCH  40  44
ENDBRANCH  32  41
ENDBRANCH   4  32
TORSDOF 7
ENDMDL
MODEL 6
REMARK VINA RESULT:     -10.3      2.618      6.451
REMARK  Name = 44257817
REMARK  7 active torsions:
REMARK  status: ('A' for Active; 'I' for Inactive)
REMARK    1  A    between atoms: O_3  and  C_25
REMARK    2  A    between atoms: O_3  and  C_30
REMARK    3  A    between atoms: O_5  and  C_27
REMARK    4  A    between atoms: O_5  and  C_31
REMARK    5  A    between atoms: C_24  and  C_28
REMARK    6  A    between atoms: C_26  and  C_29
REMARK    7  A    between atoms: C_38  and  C_40
REMARK                            x       y       z     vdW  Elec       q    Type
REMARK                         _______ _______ _______ _____ _____    ______ ____
ROOT
ATOM      1  O   UNL     1     111.795 128.259 137.030  0.00  0.00    +0.000 OA
ATOM      2  O   UNL     1     114.145 126.635 136.600  0.00  0.00    +0.000 OA
ATOM      3  O   UNL     1     113.786 127.683 135.677  0.00  0.00    +0.000 OA
ATOM      4  C   UNL     1     112.627 126.578 138.246  0.00  0.00    +0.000 A 
ATOM      5  C   UNL     1     112.111 127.217 137.991  0.00  0.00    +0.000 A 
ATOM      6  C   UNL     1     113.318 126.379 137.776  0.00  0.00    +0.000 A 
ATOM      7  C   UNL     1     112.293 127.647 137.270  0.00  0.00    +0.000 A 
ATOM      8  C   UNL     1     112.957 127.455 136.819  0.00  0.00    +0.000 A 
ATOM      9  C   UNL     1     113.484 126.820 137.058  0.00  0.00    +0.000 A 
ATOM     10  C   UNL     1     111.960 128.679 136.340  0.00  0.00    +0.000 A 
ATOM     11  C   UNL     1     113.122 127.875 136.128  0.00  0.00    +0.000 A 
ATOM     12  C   UNL     1     112.623 128.487 135.889  0.00  0.00    +0.000 A 
ENDROOT
BRANCH  10  16
ATOM     13  C   UNL     1     110.464 130.515 135.621  0.00  0.00    +0.000 A 
ATOM     14  C   UNL     1     110.296 129.737 135.404  0.00  0.00    +0.000 A 
ATOM     15  C   UNL     1     111.131 130.681 136.078  0.00  0.00    +0.000 A 
ATOM     16  C   UNL     1     111.461 129.291 136.100  0.00  0.00    +0.000 A 
ATOM     17  C   UNL     1     110.794 129.125 135.643  0.00  0.00    +0.000 A 
ATOM     18  C   UNL     1     111.629 130.069 136.318  0.00  0.00    +0.000 A 
BRANCH  13  19
ATOM     19  O   UNL     1     109.965 131.127 135.382  0.00  0.00    +0.000 OA
BRANCH  19  28
ATOM     20  O   UNL     1     109.330 131.399 136.633  0.00  0.00    +0.000 OA
ATOM     21  O   UNL     1     107.152 131.619 135.477  0.00  0.00    +0.000 OA
ATOM     22  O   UNL     1     107.242 131.818 137.113  0.00  0.00    +0.000 OA
ATOM     23  O   UNL     1     108.514 131.273 134.612  0.00  0.00    +0.000 OA
ATOM     24  C   UNL     1     107.878 131.546 135.862  0.00  0.00    +0.000 C 
ATOM     25  C   UNL     1     107.923 131.645 136.680  0.00  0.00    +0.000 C 
ATOM     26  C   UNL     1     108.559 131.373 135.430  0.00  0.00    +0.000 C 
ATOM     27  C   UNL     1     108.649 131.572 137.065  0.00  0.00    +0.000 C 
ATOM     28  C   UNL     1     109.285 131.300 135.815  0.00  0.00    +0.000 C 
BRANCH  27  31
ATOM     29  O   UNL     1     108.923 132.399 138.199  0.00  0.00    +0.000 OA
ATOM     30  O   UNL     1     108.512 131.043 138.385  0.00  0.00    +0.000 OA
ATOM     31  C   UNL     1     108.695 131.671 137.883  0.00  0.00    +0.000 C 
ENDBRANCH  27  31
ENDBRANCH  19  28
ENDBRANCH  13  19
ENDBRANCH  10  16
BRANCH   4  32
ATOM     32  O   UNL     1     112.460 126.160 138.937  0.00  0.00    +0.000 OA
BRANCH  32  41
ATOM     33  O   UNL     1     113.294 126.893 139.836  0.00  0.00    +0.000 OA
ATOM     34  O   UNL     1     111.514 126.814 141.554  0.00  0.00    +0.000 OA
ATOM     35  O   UNL     1     112.942 127.574 141.879  0.00  0.00    +0.000 OA
ATOM     36  O   UNL     1     111.273 126.107 140.083  0.00  0.00    +0.000 OA
ATOM     37  C   UNL     1     112.108 126.841 140.981  0.00  0.00    +0.000 C 
ATOM     38  C   UNL     1     112.822 127.220 141.143  0.00  0.00    +0.000 C 
ATOM     39  C   UNL     1     111.987 126.487 140.245  0.00  0.00    +0.000 C 
ATOM     40  C   UNL     1     113.415 127.247 140.571  0.00  0.00    +0.000 C 
ATOM     41  C   UNL     1     112.581 126.513 139.672  0.00  0.00    +0.000 C 
BRANCH  40  44
ATOM     42  O   UNL     1     114.783 127.188 140.980  0.00  0.00    +0.000 OA
ATOM     43  O   UNL     1     114.188 128.445 140.651  0.00  0.00    +0.000 OA
ATOM     44  C   UNL     1     114.128 127.626 140.734  0.00  0.00    +0.000 C 
ENDBRANCH  40  44
ENDBRANCH  32  41
ENDBRANCH   4  32
TORSDOF 7
ENDMDL
MODEL 7
REMARK VINA RESULT:     -10.3      8.243      9.428
REMARK  Name = 44257817
REMARK  7 active torsions:
REMARK  status: ('A' for Active; 'I' for Inactive)
REMARK    1  A    between atoms: O_3  and  C_25
REMARK    2  A    between atoms: O_3  and  C_30
REMARK    3  A    between atoms: O_5  and  C_27
REMARK    4  A    between atoms: O_5  and  C_31
REMARK    5  A    between atoms: C_24  and  C_28
REMARK    6  A    between atoms: C_26  and  C_29
REMARK    7  A    between atoms: C_38  and  C_40
REMARK                            x       y       z     vdW  Elec       q    Type
REMARK                         _______ _______ _______ _____ _____    ______ ____
ROOT
ATOM      1  O   UNL     1     104.333 129.113 142.799  0.00  0.00    +0.000 OA
ATOM      2  O   UNL     1     103.061 128.983 140.208  0.00  0.00    +0.000 OA
ATOM      3  O   UNL     1     104.028 127.992 140.613  0.00  0.00    +0.000 OA
ATOM      4  C   UNL     1     102.815 130.465 141.869  0.00  0.00    +0.000 A 
ATOM      5  C   UNL     1     103.367 130.136 142.441  0.00  0.00    +0.000 A 
ATOM      6  C   UNL     1     102.710 130.075 141.111  0.00  0.00    +0.000 A 
ATOM      7  C   UNL     1     103.805 129.423 142.246  0.00  0.00    +0.000 A 
ATOM      8  C   UNL     1     103.703 129.050 141.518  0.00  0.00    +0.000 A 
ATOM      9  C   UNL     1     103.156 129.363 140.934  0.00  0.00    +0.000 A 
ATOM     10  C   UNL     1     104.759 128.429 142.623  0.00  0.00    +0.000 A 
ATOM     11  C   UNL     1     104.130 128.365 141.341  0.00  0.00    +0.000 A 
ATOM     12  C   UNL     1     104.657 128.055 141.894  0.00  0.00    +0.000 A 
ENDROOT
BRANCH  10  16
ATOM     13  C   UNL     1     106.344 127.496 144.279  0.00  0.00    +0.000 A 
ATOM     14  C   UNL     1     105.687 127.926 144.533  0.00  0.00    +0.000 A 
ATOM     15  C   UNL     1     106.473 127.377 143.473  0.00  0.00    +0.000 A 
ATOM     16  C   UNL     1     105.288 128.118 143.175  0.00  0.00    +0.000 A 
ATOM     17  C   UNL     1     105.159 128.237 143.981  0.00  0.00    +0.000 A 
ATOM     18  C   UNL     1     105.945 127.688 142.920  0.00  0.00    +0.000 A 
BRANCH  13  19
ATOM     19  O   UNL     1     106.872 127.186 144.832  0.00  0.00    +0.000 OA
BRANCH  19  28
ATOM     20  O   UNL     1     106.267 125.892 144.907  0.00  0.00    +0.000 OA
ATOM     21  O   UNL     1     106.853 125.760 147.308  0.00  0.00    +0.000 OA
ATOM     22  O   UNL     1     106.053 124.511 146.583  0.00  0.00    +0.000 OA
ATOM     23  O   UNL     1     107.262 127.097 146.431  0.00  0.00    +0.000 OA
ATOM     24  C   UNL     1     106.658 125.804 146.507  0.00  0.00    +0.000 C 
ATOM     25  C   UNL     1     106.258 125.180 146.145  0.00  0.00    +0.000 C 
ATOM     26  C   UNL     1     106.862 126.473 146.069  0.00  0.00    +0.000 C 
ATOM     27  C   UNL     1     106.063 125.224 145.345  0.00  0.00    +0.000 C 
ATOM     28  C   UNL     1     106.667 126.517 145.269  0.00  0.00    +0.000 C 
BRANCH  27  31
ATOM     29  O   UNL     1     104.840 124.566 145.009  0.00  0.00    +0.000 OA
ATOM     30  O   UNL     1     106.088 124.011 144.592  0.00  0.00    +0.000 OA
ATOM     31  C   UNL     1     105.663 124.600 144.982  0.00  0.00    +0.000 C 
ENDBRANCH  27  31
ENDBRANCH  19  28
ENDBRANCH  13  19
ENDBRANCH  10  16
BRANCH   4  32
ATOM     32  O   UNL     1     102.391 131.149 142.048  0.00  0.00    +0.000 OA
BRANCH  32  41
ATOM     33  O   UNL     1     103.437 132.001 141.576  0.00  0.00    +0.000 OA
ATOM     34  O   UNL     1     101.797 133.821 141.226  0.00  0.00    +0.000 OA
ATOM     35  O   UNL     1     103.389 134.065 140.872  0.00  0.00    +0.000 OA
ATOM     36  O   UNL     1     101.297 132.363 141.814  0.00  0.00    +0.000 OA
ATOM     37  C   UNL     1     102.344 133.215 141.343  0.00  0.00    +0.000 C 
ATOM     38  C   UNL     1     103.140 133.336 141.166  0.00  0.00    +0.000 C 
ATOM     39  C   UNL     1     102.094 132.485 141.637  0.00  0.00    +0.000 C 
ATOM     40  C   UNL     1     103.687 132.729 141.282  0.00  0.00    +0.000 C 
ATOM     41  C   UNL     1     102.640 131.878 141.754  0.00  0.00    +0.000 C 
BRANCH  40  44
ATOM     42  O   UNL     1     104.770 132.677 140.352  0.00  0.00    +0.000 OA
ATOM     43  O   UNL     1     104.992 133.149 141.681  0.00  0.00    +0.000 OA
ATOM     44  C   UNL     1     104.482 132.852 141.105  0.00  0.00    +0.000 C 
ENDBRANCH  40  44
ENDBRANCH  32  41
ENDBRANCH   4  32
TORSDOF 7
ENDMDL
MODEL 8
REMARK VINA RESULT:     -10.2      1.917      7.104
REMARK  Name = 44257817
REMARK  7 active torsions:
REMARK  status: ('A' for Active; 'I' for Inactive)
REMARK    1  A    between atoms: O_3  and  C_25
REMARK    2  A    between atoms: O_3  and  C_30
REMARK    3  A    between atoms: O_5  and  C_27
REMARK    4  A    between atoms: O_5  and  C_31
REMARK    5  A    between atoms: C_24  and  C_28
REMARK    6  A    between atoms: C_26  and  C_29
REMARK    7  A    between atoms: C_38  and  C_40
REMARK                            x       y       z     vdW  Elec       q    Type
REMARK                         _______ _______ _______ _____ _____    ______ ____
ROOT
ATOM      1  O   UNL     1     111.739 128.590 138.456  0.00  0.00    +0.000 OA
ATOM      2  O   UNL     1     113.886 127.678 140.160  0.00  0.00    +0.000 OA
ATOM      3  O   UNL     1     113.635 129.086 139.968  0.00  0.00    +0.000 OA
ATOM      4  C   UNL     1     112.392 126.514 138.965  0.00  0.00    +0.000 A 
ATOM      5  C   UNL     1     111.948 127.162 138.615  0.00  0.00    +0.000 A 
ATOM      6  C   UNL     1     113.050 126.686 139.489  0.00  0.00    +0.000 A 
ATOM      7  C   UNL     1     112.169 127.972 138.794  0.00  0.00    +0.000 A 
ATOM      8  C   UNL     1     112.801 128.137 139.298  0.00  0.00    +0.000 A 
ATOM      9  C   UNL     1     113.256 127.503 139.657  0.00  0.00    +0.000 A 
ATOM     10  C   UNL     1     111.942 129.372 138.621  0.00  0.00    +0.000 A 
ATOM     11  C   UNL     1     113.003 128.921 139.464  0.00  0.00    +0.000 A 
ATOM     12  C   UNL     1     112.573 129.537 139.125  0.00  0.00    +0.000 A 
ENDROOT
BRANCH  10  16
ATOM     13  C   UNL     1     110.654 131.225 137.604  0.00  0.00    +0.000 A 
ATOM     14  C   UNL     1     110.386 130.868 138.298  0.00  0.00    +0.000 A 
ATOM     15  C   UNL     1     111.351 130.964 137.249  0.00  0.00    +0.000 A 
ATOM     16  C   UNL     1     111.512 129.990 138.282  0.00  0.00    +0.000 A 
ATOM     17  C   UNL     1     110.815 130.251 138.637  0.00  0.00    +0.000 A 
ATOM     18  C   UNL     1     111.781 130.346 137.588  0.00  0.00    +0.000 A 
BRANCH  13  19
ATOM     19  O   UNL     1     110.224 131.842 137.265  0.00  0.00    +0.000 OA
BRANCH  19  28
ATOM     20  O   UNL     1     109.340 130.976 136.551  0.00  0.00    +0.000 OA
ATOM     21  O   UNL     1     109.044 132.713 134.813  0.00  0.00    +0.000 OA
ATOM     22  O   UNL     1     108.259 131.268 134.677  0.00  0.00    +0.000 OA
ATOM     23  O   UNL     1     110.026 133.000 136.107  0.00  0.00    +0.000 OA
ATOM     24  C   UNL     1     109.143 132.134 135.392  0.00  0.00    +0.000 C 
ATOM     25  C   UNL     1     108.750 131.411 135.324  0.00  0.00    +0.000 C 
ATOM     26  C   UNL     1     109.634 132.277 136.039  0.00  0.00    +0.000 C 
ATOM     27  C   UNL     1     108.849 130.832 135.904  0.00  0.00    +0.000 C 
ATOM     28  C   UNL     1     109.733 131.698 136.619  0.00  0.00    +0.000 C 
BRANCH  27  31
ATOM     29  O   UNL     1     108.801 129.491 135.413  0.00  0.00    +0.000 OA
ATOM     30  O   UNL     1     107.720 130.006 136.193  0.00  0.00    +0.000 OA
ATOM     31  C   UNL     1     108.457 130.110 135.836  0.00  0.00    +0.000 C 
ENDBRANCH  27  31
ENDBRANCH  19  28
ENDBRANCH  13  19
ENDBRANCH  10  16
BRANCH   4  32
ATOM     32  O   UNL     1     112.188 125.732 138.798  0.00  0.00    +0.000 OA
BRANCH  32  41
ATOM     33  O   UNL     1     113.284 125.430 137.932  0.00  0.00    +0.000 OA
ATOM     34  O   UNL     1     111.771 124.126 136.471  0.00  0.00    +0.000 OA
ATOM     35  O   UNL     1     113.370 124.259 136.092  0.00  0.00    +0.000 OA
ATOM     36  O   UNL     1     111.179 124.862 137.824  0.00  0.00    +0.000 OA
ATOM     37  C   UNL     1     112.275 124.561 136.958  0.00  0.00    +0.000 C 
ATOM     38  C   UNL     1     113.075 124.628 136.769  0.00  0.00    +0.000 C 
ATOM     39  C   UNL     1     111.979 124.929 137.635  0.00  0.00    +0.000 C 
ATOM     40  C   UNL     1     113.580 125.063 137.256  0.00  0.00    +0.000 C 
ATOM     41  C   UNL     1     112.484 125.364 138.122  0.00  0.00    +0.000 C 
BRANCH  40  44
ATOM     42  O   UNL     1     114.633 125.717 136.546  0.00  0.00    +0.000 OA
ATOM     43  O   UNL     1     114.926 124.608 137.397  0.00  0.00    +0.000 OA
ATOM     44  C   UNL     1     114.379 125.129 137.066  0.00  0.00    +0.000 C 
ENDBRANCH  40  44
ENDBRANCH  32  41
ENDBRANCH   4  32
TORSDOF 7
ENDMDL
MODEL 9
REMARK VINA RESULT:     -10.2      1.771      3.063
REMARK  Name = 44257817
REMARK  7 active torsions:
REMARK  status: ('A' for Active; 'I' for Inactive)
REMARK    1  A    between atoms: O_3  and  C_25
REMARK    2  A    between atoms: O_3  and  C_30
REMARK    3  A    between atoms: O_5  and  C_27
REMARK    4  A    between atoms: O_5  and  C_31
REMARK    5  A    between atoms: C_24  and  C_28
REMARK    6  A    between atoms: C_26  and  C_29
REMARK    7  A    between atoms: C_38  and  C_40
REMARK                            x       y       z     vdW  Elec       q    Type
REMARK                         _______ _______ _______ _____ _____    ______ ____
ROOT
ATOM      1  O   UNL     1     111.961 129.347 137.256  0.00  0.00    +0.000 OA
ATOM      2  O   UNL     1     112.424 132.197 137.173  0.00  0.00    +0.000 OA
ATOM      3  O   UNL     1     113.440 131.266 136.747  0.00  0.00    +0.000 OA
ATOM      4  C   UNL     1     110.622 131.041 137.832  0.00  0.00    +0.000 A 
ATOM      5  C   UNL     1     110.904 130.240 137.696  0.00  0.00    +0.000 A 
ATOM      6  C   UNL     1     111.136 131.707 137.656  0.00  0.00    +0.000 A 
ATOM      7  C   UNL     1     111.695 130.117 137.385  0.00  0.00    +0.000 A 
ATOM      8  C   UNL     1     112.188 130.757 137.215  0.00  0.00    +0.000 A 
ATOM      9  C   UNL     1     111.924 131.564 137.345  0.00  0.00    +0.000 A 
ATOM     10  C   UNL     1     112.719 129.216 136.957  0.00  0.00    +0.000 A 
ATOM     11  C   UNL     1     112.947 130.626 136.917  0.00  0.00    +0.000 A 
ATOM     12  C   UNL     1     113.211 129.856 136.788  0.00  0.00    +0.000 A 
ENDROOT
BRANCH  10  16
ATOM     13  C   UNL     1     113.515 126.905 136.569  0.00  0.00    +0.000 A 
ATOM     14  C   UNL     1     113.432 127.189 137.339  0.00  0.00    +0.000 A 
ATOM     15  C   UNL     1     113.332 127.391 135.928  0.00  0.00    +0.000 A 
ATOM     16  C   UNL     1     112.984 128.445 136.828  0.00  0.00    +0.000 A 
ATOM     17  C   UNL     1     113.167 127.959 137.469  0.00  0.00    +0.000 A 
ATOM     18  C   UNL     1     113.067 128.162 136.057  0.00  0.00    +0.000 A 
BRANCH  13  19
ATOM     19  O   UNL     1     113.780 126.135 136.440  0.00  0.00    +0.000 OA
BRANCH  19  28
ATOM     20  O   UNL     1     112.465 125.584 136.338  0.00  0.00    +0.000 OA
ATOM     21  O   UNL     1     113.308 123.418 137.188  0.00  0.00    +0.000 OA
ATOM     22  O   UNL     1     111.712 123.588 136.803  0.00  0.00    +0.000 OA
ATOM     23  O   UNL     1     114.341 124.691 137.006  0.00  0.00    +0.000 OA
ATOM     24  C   UNL     1     113.027 124.140 136.904  0.00  0.00    +0.000 C 
ATOM     25  C   UNL     1     112.229 124.225 136.712  0.00  0.00    +0.000 C 
ATOM     26  C   UNL     1     113.544 124.776 136.814  0.00  0.00    +0.000 C 
ATOM     27  C   UNL     1     111.948 124.947 136.429  0.00  0.00    +0.000 C 
ATOM     28  C   UNL     1     113.263 125.498 136.530  0.00  0.00    +0.000 C 
BRANCH  27  31
ATOM     29  O   UNL     1     110.894 124.888 135.466  0.00  0.00    +0.000 OA
ATOM     30  O   UNL     1     110.610 125.265 136.815  0.00  0.00    +0.000 OA
ATOM     31  C   UNL     1     111.151 125.033 136.236  0.00  0.00    +0.000 C 
ENDBRANCH  27  31
ENDBRANCH  19  28
ENDBRANCH  13  19
ENDBRANCH  10  16
BRANCH   4  32
ATOM     32  O   UNL     1     109.864 131.169 138.131  0.00  0.00    +0.000 OA
BRANCH  32  41
ATOM     33  O   UNL     1     110.249 131.154 139.507  0.00  0.00    +0.000 OA
ATOM     34  O   UNL     1     108.079 130.122 140.103  0.00  0.00    +0.000 OA
ATOM     35  O   UNL     1     109.187 130.451 141.279  0.00  0.00    +0.000 OA
ATOM     36  O   UNL     1     108.417 130.481 138.528  0.00  0.00    +0.000 OA
ATOM     37  C   UNL     1     108.802 130.466 139.904  0.00  0.00    +0.000 C 
ATOM     38  C   UNL     1     109.357 130.631 140.492  0.00  0.00    +0.000 C 
ATOM     39  C   UNL     1     108.972 130.646 139.116  0.00  0.00    +0.000 C 
ATOM     40  C   UNL     1     110.080 130.975 140.294  0.00  0.00    +0.000 C 
ATOM     41  C   UNL     1     109.695 130.990 138.918  0.00  0.00    +0.000 C 
BRANCH  40  44
ATOM     42  O   UNL     1     111.167 130.557 141.122  0.00  0.00    +0.000 OA
ATOM     43  O   UNL     1     110.654 131.886 141.232  0.00  0.00    +0.000 OA
ATOM     44  C   UNL     1     110.633 131.139 140.882  0.00  0.00    +0.000 C 
ENDBRANCH  40  44
ENDBRANCH  32  41
ENDBRANCH   4  32
TORSDOF 7
ENDMDL
MODEL 10
REMARK VINA RESULT:     -10.0      1.654      7.080
REMARK  Name = 44257817
REMARK  7 active torsions:
REMARK  status: ('A' for Active; 'I' for Inactive)
REMARK    1  A    between atoms: O_3  and  C_25
REMARK    2  A    between atoms: O_3  and  C_30
REMARK    3  A    between atoms: O_5  and  C_27
REMARK    4  A    between atoms: O_5  and  C_31
REMARK    5  A    between atoms: C_24  and  C_28
REMARK    6  A    between atoms: C_26  and  C_29
REMARK    7  A    between atoms: C_38  and  C_40
REMARK                            x       y       z     vdW  Elec       q    Type
REMARK                         _______ _______ _______ _____ _____    ______ ____
ROOT
ATOM      1  O   UNL     1     112.611 128.883 136.896  0.00  0.00    +0.000 OA
ATOM      2  O   UNL     1     114.772 127.870 135.269  0.00  0.00    +0.000 OA
ATOM      3  O   UNL     1     114.243 129.196 135.062  0.00  0.00    +0.000 OA
ATOM      4  C   UNL     1     113.649 126.905 136.950  0.00  0.00    +0.000 A 
ATOM      5  C   UNL     1     113.105 127.541 137.146  0.00  0.00    +0.000 A 
ATOM      6  C   UNL     1     114.216 127.014 136.313  0.00  0.00    +0.000 A 
ATOM      7  C   UNL     1     113.135 128.277 136.703  0.00  0.00    +0.000 A 
ATOM      8  C   UNL     1     113.679 128.381 136.092  0.00  0.00    +0.000 A 
ATOM      9  C   UNL     1     114.231 127.757 135.882  0.00  0.00    +0.000 A 
ATOM     10  C   UNL     1     112.630 129.594 136.478  0.00  0.00    +0.000 A 
ATOM     11  C   UNL     1     113.699 129.092 135.673  0.00  0.00    +0.000 A 
ATOM     12  C   UNL     1     113.175 129.698 135.867  0.00  0.00    +0.000 A 
ENDROOT
BRANCH  10  16
ATOM     13  C   UNL     1     111.057 131.415 137.057  0.00  0.00    +0.000 A 
ATOM     14  C   UNL     1     110.832 130.830 136.521  0.00  0.00    +0.000 A 
ATOM     15  C   UNL     1     111.807 131.393 137.401  0.00  0.00    +0.000 A 
ATOM     16  C   UNL     1     112.106 130.201 136.671  0.00  0.00    +0.000 A 
ATOM     17  C   UNL     1     111.356 130.223 136.328  0.00  0.00    +0.000 A 
ATOM     18  C   UNL     1     112.332 130.786 137.208  0.00  0.00    +0.000 A 
BRANCH  13  19
ATOM     19  O   UNL     1     110.533 132.022 137.250  0.00  0.00    +0.000 OA
BRANCH  19  28
ATOM     20  O   UNL     1     110.055 131.538 138.508  0.00  0.00    +0.000 OA
ATOM     21  O   UNL     1     107.743 132.135 137.858  0.00  0.00    +0.000 OA
ATOM     22  O   UNL     1     108.036 131.452 139.331  0.00  0.00    +0.000 OA
ATOM     23  O   UNL     1     108.992 132.420 136.817  0.00  0.00    +0.000 OA
ATOM     24  C   UNL     1     108.514 131.936 138.074  0.00  0.00    +0.000 C 
ATOM     25  C   UNL     1     108.660 131.595 138.811  0.00  0.00    +0.000 C 
ATOM     26  C   UNL     1     109.138 132.078 137.554  0.00  0.00    +0.000 C 
ATOM     27  C   UNL     1     109.431 131.395 139.028  0.00  0.00    +0.000 C 
ATOM     28  C   UNL     1     109.909 131.879 137.771  0.00  0.00    +0.000 C 
BRANCH  27  31
ATOM     29  O   UNL     1     109.541 130.235 139.854  0.00  0.00    +0.000 OA
ATOM     30  O   UNL     1     109.762 131.533 140.410  0.00  0.00    +0.000 OA
ATOM     31  C   UNL     1     109.578 131.054 139.764  0.00  0.00    +0.000 C 
ENDBRANCH  27  31
ENDBRANCH  19  28
ENDBRANCH  13  19
ENDBRANCH  10  16
BRANCH   4  32
ATOM     32  O   UNL     1     113.627 126.195 137.370  0.00  0.00    +0.000 OA
BRANCH  32  41
ATOM     33  O   UNL     1     112.416 125.717 136.782  0.00  0.00    +0.000 OA
ATOM     34  O   UNL     1     113.267 123.397 136.917  0.00  0.00    +0.000 OA
ATOM     35  O   UNL     1     111.772 123.692 136.284  0.00  0.00    +0.000 OA
ATOM     36  O   UNL     1     114.194 124.648 137.460  0.00  0.00    +0.000 OA
ATOM     37  C   UNL     1     112.983 124.170 136.872  0.00  0.00    +0.000 C 
ATOM     38  C   UNL     1     112.236 124.318 136.555  0.00  0.00    +0.000 C 
ATOM     39  C   UNL     1     113.447 124.796 137.143  0.00  0.00    +0.000 C 
ATOM     40  C   UNL     1     111.952 125.092 136.511  0.00  0.00    +0.000 C 
ATOM     41  C   UNL     1     113.164 125.570 137.099  0.00  0.00    +0.000 C 
BRANCH  40  44
ATOM     42  O   UNL     1     111.110 125.316 135.378  0.00  0.00    +0.000 OA
ATOM     43  O   UNL     1     110.553 125.310 136.694  0.00  0.00    +0.000 OA
ATOM     44  C   UNL     1     111.205 125.239 136.194  0.00  0.00    +0.000 C 
ENDBRANCH  40  44
ENDBRANCH  32  41
ENDBRANCH   4  32
TORSDOF 7
ENDMDL
