MODEL 1
REMARK VINA RESULT:     -10.5      0.000      0.000
REMARK  Name = 44259214
REMARK  3 active torsions:
REMARK  status: ('A' for Active; 'I' for Inactive)
REMARK    1  A    between atoms: O_2  and  C_15
REMARK    2  A    between atoms: O_2  and  C_17
REMARK    3  A    between atoms: C_18  and  C_22
REMARK                            x       y       z     vdW  Elec       q    Type
REMARK                         _______ _______ _______ _____ _____    ______ ____
ROOT
ATOM      1  O   UNL     1     105.636 124.496 147.762  0.00  0.00    +0.000 OA
ATOM      2  O   UNL     1     107.047 125.553 146.025  0.00  0.00    +0.000 OA
ATOM      3  O   UNL     1     108.183 125.565 146.914  0.00  0.00    +0.000 OA
ATOM      4  O   UNL     1     107.885 124.487 149.612  0.00  0.00    +0.000 OA
ATOM      5  C   UNL     1     105.787 125.024 146.442  0.00  0.00    +0.000 A 
ATOM      6  C   UNL     1     105.316 124.672 147.021  0.00  0.00    +0.000 A 
ATOM      7  C   UNL     1     106.577 125.200 146.604  0.00  0.00    +0.000 A 
ATOM      8  C   UNL     1     106.896 125.024 147.343  0.00  0.00    +0.000 A 
ATOM      9  C   UNL     1     106.426 124.672 147.922  0.00  0.00    +0.000 A 
ATOM     10  C   UNL     1     106.747 124.484 148.697  0.00  0.00    +0.000 A 
ATOM     11  C   UNL     1     107.720 125.213 147.499  0.00  0.00    +0.000 A 
ATOM     12  C   UNL     1     107.568 124.665 148.870  0.00  0.00    +0.000 A 
ATOM     13  C   UNL     1     108.058 125.031 148.268  0.00  0.00    +0.000 A 
ATOM     14  C   UNL     1     106.269 124.131 149.270  0.00  0.00    +0.000 C 
ENDROOT
BRANCH   6  17
ATOM     15  O   UNL     1     103.353 123.001 145.788  0.00  0.00    +0.000 OA
ATOM     16  O   UNL     1     102.156 123.969 146.382  0.00  0.00    +0.000 OA
ATOM     17  C   UNL     1     104.527 124.496 146.861  0.00  0.00    +0.000 A 
ATOM     18  C   UNL     1     104.335 123.836 146.405  0.00  0.00    +0.000 A 
ATOM     19  C   UNL     1     103.928 124.980 147.158  0.00  0.00    +0.000 A 
ATOM     20  C   UNL     1     103.545 123.661 146.245  0.00  0.00    +0.000 A 
ATOM     21  C   UNL     1     103.138 124.804 146.998  0.00  0.00    +0.000 A 
ATOM     22  C   UNL     1     102.947 124.144 146.541  0.00  0.00    +0.000 A 
ENDBRANCH   6  17
BRANCH   5  23
ATOM     23  O   UNL     1     105.467 125.200 145.703  0.00  0.00    +0.000 OA
BRANCH  23  31
ATOM     24  O   UNL     1     105.441 126.607 145.957  0.00  0.00    +0.000 OA
ATOM     25  O   UNL     1     105.564 127.049 143.526  0.00  0.00    +0.000 OA
ATOM     26  O   UNL     1     105.550 125.496 144.082  0.00  0.00    +0.000 OA
ATOM     27  O   UNL     1     105.496 128.307 144.591  0.00  0.00    +0.000 OA
ATOM     28  C   UNL     1     105.523 126.902 144.336  0.00  0.00    +0.000 C 
ATOM     29  C   UNL     1     105.516 126.125 144.614  0.00  0.00    +0.000 C 
ATOM     30  C   UNL     1     105.489 127.531 144.869  0.00  0.00    +0.000 C 
ATOM     31  C   UNL     1     105.475 125.977 145.425  0.00  0.00    +0.000 C 
ATOM     32  C   UNL     1     105.448 127.383 145.679  0.00  0.00    +0.000 C 
ENDBRANCH  23  31
ENDBRANCH   5  23
TORSDOF 3
ENDMDL
MODEL 2
REMARK VINA RESULT:     -10.1      1.588      4.110
REMARK  Name = 44259214
REMARK  3 active torsions:
REMARK  status: ('A' for Active; 'I' for Inactive)
REMARK    1  A    between atoms: O_2  and  C_15
REMARK    2  A    between atoms: O_2  and  C_17
REMARK    3  A    between atoms: C_18  and  C_22
REMARK                            x       y       z     vdW  Elec       q    Type
REMARK                         _______ _______ _______ _____ _____    ______ ____
ROOT
ATOM      1  O   UNL     1     103.625 125.609 147.288  0.00  0.00    +0.000 OA
ATOM      2  O   UNL     1     105.567 124.355 146.402  0.00  0.00    +0.000 OA
ATOM      3  O   UNL     1     104.719 123.249 146.029  0.00  0.00    +0.000 OA
ATOM      4  O   UNL     1     101.852 123.415 146.562  0.00  0.00    +0.000 OA
ATOM      5  C   UNL     1     105.028 125.523 147.025  0.00  0.00    +0.000 A 
ATOM      6  C   UNL     1     104.380 125.941 147.320  0.00  0.00    +0.000 A 
ATOM      7  C   UNL     1     104.919 124.773 146.697  0.00  0.00    +0.000 A 
ATOM      8  C   UNL     1     104.165 124.441 146.665  0.00  0.00    +0.000 A 
ATOM      9  C   UNL     1     103.518 124.859 146.960  0.00  0.00    +0.000 A 
ATOM     10  C   UNL     1     102.727 124.524 146.933  0.00  0.00    +0.000 A 
ATOM     11  C   UNL     1     104.066 123.660 146.321  0.00  0.00    +0.000 A 
ATOM     12  C   UNL     1     102.609 123.744 146.593  0.00  0.00    +0.000 A 
ATOM     13  C   UNL     1     103.283 123.309 146.285  0.00  0.00    +0.000 A 
ATOM     14  C   UNL     1     102.086 124.949 147.231  0.00  0.00    +0.000 C 
ENDROOT
BRANCH   6  17
ATOM     15  O   UNL     1     104.550 127.640 149.611  0.00  0.00    +0.000 OA
ATOM     16  O   UNL     1     104.808 128.940 148.628  0.00  0.00    +0.000 OA
ATOM     17  C   UNL     1     104.487 126.690 147.648  0.00  0.00    +0.000 A 
ATOM     18  C   UNL     1     104.465 126.790 148.466  0.00  0.00    +0.000 A 
ATOM     19  C   UNL     1     104.616 127.340 147.155  0.00  0.00    +0.000 A 
ATOM     20  C   UNL     1     104.572 127.540 148.793  0.00  0.00    +0.000 A 
ATOM     21  C   UNL     1     104.723 128.090 147.483  0.00  0.00    +0.000 A 
ATOM     22  C   UNL     1     104.701 128.190 148.302  0.00  0.00    +0.000 A 
ENDBRANCH   6  17
BRANCH   5  23
ATOM     23  O   UNL     1     105.781 125.855 147.057  0.00  0.00    +0.000 OA
BRANCH  23  31
ATOM     24  O   UNL     1     106.179 125.012 148.141  0.00  0.00    +0.000 OA
ATOM     25  O   UNL     1     108.553 125.330 147.518  0.00  0.00    +0.000 OA
ATOM     26  O   UNL     1     107.364 126.067 146.642  0.00  0.00    +0.000 OA
ATOM     27  O   UNL     1     108.158 124.382 148.810  0.00  0.00    +0.000 OA
ATOM     28  C   UNL     1     107.762 125.224 147.726  0.00  0.00    +0.000 C 
ATOM     29  C   UNL     1     107.168 125.592 147.288  0.00  0.00    +0.000 C 
ATOM     30  C   UNL     1     107.564 124.750 148.371  0.00  0.00    +0.000 C 
ATOM     31  C   UNL     1     106.376 125.486 147.495  0.00  0.00    +0.000 C 
ATOM     32  C   UNL     1     106.773 124.644 148.579  0.00  0.00    +0.000 C 
ENDBRANCH  23  31
ENDBRANCH   5  23
TORSDOF 3
ENDMDL
MODEL 3
REMARK VINA RESULT:      -9.9      0.914      3.300
REMARK  Name = 44259214
REMARK  3 active torsions:
REMARK  status: ('A' for Active; 'I' for Inactive)
REMARK    1  A    between atoms: O_2  and  C_15
REMARK    2  A    between atoms: O_2  and  C_17
REMARK    3  A    between atoms: C_18  and  C_22
REMARK                            x       y       z     vdW  Elec       q    Type
REMARK                         _______ _______ _______ _____ _____    ______ ____
ROOT
ATOM      1  O   UNL     1     106.603 125.248 147.202  0.00  0.00    +0.000 OA
ATOM      2  O   UNL     1     104.560 124.691 148.483  0.00  0.00    +0.000 OA
ATOM      3  O   UNL     1     105.349 124.262 149.612  0.00  0.00    +0.000 OA
ATOM      4  O   UNL     1     108.262 124.400 149.441  0.00  0.00    +0.000 OA
ATOM      5  C   UNL     1     105.178 125.178 147.291  0.00  0.00    +0.000 A 
ATOM      6  C   UNL     1     105.859 125.364 146.864  0.00  0.00    +0.000 A 
ATOM      7  C   UNL     1     105.241 124.876 148.056  0.00  0.00    +0.000 A 
ATOM      8  C   UNL     1     105.984 124.760 148.394  0.00  0.00    +0.000 A 
ATOM      9  C   UNL     1     106.665 124.946 147.967  0.00  0.00    +0.000 A 
ATOM     10  C   UNL     1     107.445 124.829 148.309  0.00  0.00    +0.000 A 
ATOM     11  C   UNL     1     106.036 124.445 149.192  0.00  0.00    +0.000 A 
ATOM     12  C   UNL     1     107.516 124.515 149.106  0.00  0.00    +0.000 A 
ATOM     13  C   UNL     1     106.807 124.322 149.550  0.00  0.00    +0.000 A 
ATOM     14  C   UNL     1     108.120 125.018 147.875  0.00  0.00    +0.000 C 
ENDROOT
BRANCH   6  17
ATOM     15  O   UNL     1     106.063 125.004 144.036  0.00  0.00    +0.000 OA
ATOM     16  O   UNL     1     105.612 126.574 143.804  0.00  0.00    +0.000 OA
ATOM     17  C   UNL     1     105.797 125.666 146.099  0.00  0.00    +0.000 A 
ATOM     18  C   UNL     1     105.961 125.183 145.450  0.00  0.00    +0.000 A 
ATOM     19  C   UNL     1     105.572 126.452 145.983  0.00  0.00    +0.000 A 
ATOM     20  C   UNL     1     105.899 125.487 144.685  0.00  0.00    +0.000 A 
ATOM     21  C   UNL     1     105.510 126.754 145.217  0.00  0.00    +0.000 A 
ATOM     22  C   UNL     1     105.674 126.271 144.569  0.00  0.00    +0.000 A 
ENDBRANCH   6  17
BRANCH   5  23
ATOM     23  O   UNL     1     104.435 125.294 146.952  0.00  0.00    +0.000 OA
BRANCH  23  31
ATOM     24  O   UNL     1     104.223 123.909 146.671  0.00  0.00    +0.000 OA
ATOM     25  O   UNL     1     101.783 124.231 146.923  0.00  0.00    +0.000 OA
ATOM     26  O   UNL     1     102.808 125.509 147.120  0.00  0.00    +0.000 OA
ATOM     27  O   UNL     1     102.385 122.739 146.558  0.00  0.00    +0.000 OA
ATOM     28  C   UNL     1     102.596 124.124 146.839  0.00  0.00    +0.000 C 
ATOM     29  C   UNL     1     103.108 124.763 146.938  0.00  0.00    +0.000 C 
ATOM     30  C   UNL     1     102.897 123.378 146.656  0.00  0.00    +0.000 C 
ATOM     31  C   UNL     1     103.923 124.656 146.854  0.00  0.00    +0.000 C 
ATOM     32  C   UNL     1     103.711 123.271 146.573  0.00  0.00    +0.000 C 
ENDBRANCH  23  31
ENDBRANCH   5  23
TORSDOF 3
ENDMDL
MODEL 4
REMARK VINA RESULT:      -9.9      1.190      3.661
REMARK  Name = 44259214
REMARK  3 active torsions:
REMARK  status: ('A' for Active; 'I' for Inactive)
REMARK    1  A    between atoms: O_2  and  C_15
REMARK    2  A    between atoms: O_2  and  C_17
REMARK    3  A    between atoms: C_18  and  C_22
REMARK                            x       y       z     vdW  Elec       q    Type
REMARK                         _______ _______ _______ _____ _____    ______ ____
ROOT
ATOM      1  O   UNL     1     103.898 124.388 148.085  0.00  0.00    +0.000 OA
ATOM      2  O   UNL     1     104.145 124.213 145.628  0.00  0.00    +0.000 OA
ATOM      3  O   UNL     1     102.756 123.852 145.485  0.00  0.00    +0.000 OA
ATOM      4  O   UNL     1     101.085 123.665 147.873  0.00  0.00    +0.000 OA
ATOM      5  C   UNL     1     104.712 124.478 146.913  0.00  0.00    +0.000 A 
ATOM      6  C   UNL     1     104.629 124.536 147.732  0.00  0.00    +0.000 A 
ATOM      7  C   UNL     1     104.063 124.271 146.447  0.00  0.00    +0.000 A 
ATOM      8  C   UNL     1     103.332 124.122 146.799  0.00  0.00    +0.000 A 
ATOM      9  C   UNL     1     103.250 124.181 147.618  0.00  0.00    +0.000 A 
ATOM     10  C   UNL     1     102.493 124.028 147.997  0.00  0.00    +0.000 A 
ATOM     11  C   UNL     1     102.664 123.908 146.303  0.00  0.00    +0.000 A 
ATOM     12  C   UNL     1     101.815 123.813 147.517  0.00  0.00    +0.000 A 
ATOM     13  C   UNL     1     101.901 123.752 146.664  0.00  0.00    +0.000 A 
ATOM     14  C   UNL     1     102.421 124.089 148.817  0.00  0.00    +0.000 C 
ENDROOT
BRANCH   6  17
ATOM     15  O   UNL     1     106.008 126.449 149.347  0.00  0.00    +0.000 OA
ATOM     16  O   UNL     1     107.223 125.361 149.598  0.00  0.00    +0.000 OA
ATOM     17  C   UNL     1     105.277 124.743 148.198  0.00  0.00    +0.000 A 
ATOM     18  C   UNL     1     105.318 125.493 148.540  0.00  0.00    +0.000 A 
ATOM     19  C   UNL     1     105.885 124.199 148.324  0.00  0.00    +0.000 A 
ATOM     20  C   UNL     1     105.967 125.699 149.006  0.00  0.00    +0.000 A 
ATOM     21  C   UNL     1     106.533 124.405 148.791  0.00  0.00    +0.000 A 
ATOM     22  C   UNL     1     106.574 125.155 149.132  0.00  0.00    +0.000 A 
ENDBRANCH   6  17
BRANCH   5  23
ATOM     23  O   UNL     1     105.442 124.626 146.561  0.00  0.00    +0.000 OA
BRANCH  23  31
ATOM     24  O   UNL     1     105.030 125.903 146.069  0.00  0.00    +0.000 OA
ATOM     25  O   UNL     1     106.738 125.768 144.284  0.00  0.00    +0.000 OA
ATOM     26  O   UNL     1     106.581 124.537 145.370  0.00  0.00    +0.000 OA
ATOM     27  O   UNL     1     105.755 127.090 144.387  0.00  0.00    +0.000 OA
ATOM     28  C   UNL     1     106.169 125.813 144.878  0.00  0.00    +0.000 C 
ATOM     29  C   UNL     1     106.091 125.198 145.422  0.00  0.00    +0.000 C 
ATOM     30  C   UNL     1     105.677 126.474 144.931  0.00  0.00    +0.000 C 
ATOM     31  C   UNL     1     105.521 125.242 146.017  0.00  0.00    +0.000 C 
ATOM     32  C   UNL     1     105.108 126.519 145.525  0.00  0.00    +0.000 C 
ENDBRANCH  23  31
ENDBRANCH   5  23
TORSDOF 3
ENDMDL
MODEL 5
REMARK VINA RESULT:      -9.8     11.966     13.169
REMARK  Name = 44259214
REMARK  3 active torsions:
REMARK  status: ('A' for Active; 'I' for Inactive)
REMARK    1  A    between atoms: O_2  and  C_15
REMARK    2  A    between atoms: O_2  and  C_17
REMARK    3  A    between atoms: C_18  and  C_22
REMARK                            x       y       z     vdW  Elec       q    Type
REMARK                         _______ _______ _______ _____ _____    ______ ____
ROOT
ATOM      1  O   UNL     1     111.897 126.042 136.161  0.00  0.00    +0.000 OA
ATOM      2  O   UNL     1     111.659 128.505 136.118  0.00  0.00    +0.000 OA
ATOM      3  O   UNL     1     110.442 128.404 135.350  0.00  0.00    +0.000 OA
ATOM      4  O   UNL     1     109.447 125.758 134.612  0.00  0.00    +0.000 OA
ATOM      5  C   UNL     1     112.380 127.339 136.520  0.00  0.00    +0.000 A 
ATOM      6  C   UNL     1     112.459 126.518 136.534  0.00  0.00    +0.000 A 
ATOM      7  C   UNL     1     111.738 127.684 136.132  0.00  0.00    +0.000 A 
ATOM      8  C   UNL     1     111.177 127.210 135.760  0.00  0.00    +0.000 A 
ATOM      9  C   UNL     1     111.256 126.389 135.774  0.00  0.00    +0.000 A 
ATOM     10  C   UNL     1     110.677 125.883 135.389  0.00  0.00    +0.000 A 
ATOM     11  C   UNL     1     110.513 127.582 135.359  0.00  0.00    +0.000 A 
ATOM     12  C   UNL     1     110.008 126.237 134.984  0.00  0.00    +0.000 A 
ATOM     13  C   UNL     1     109.925 127.092 134.969  0.00  0.00    +0.000 A 
ATOM     14  C   UNL     1     110.765 125.063 135.409  0.00  0.00    +0.000 C 
ENDROOT
BRANCH   6  17
ATOM     15  O   UNL     1     114.997 125.208 136.437  0.00  0.00    +0.000 OA
ATOM     16  O   UNL     1     115.022 125.134 138.085  0.00  0.00    +0.000 OA
ATOM     17  C   UNL     1     113.100 126.172 136.921  0.00  0.00    +0.000 A 
ATOM     18  C   UNL     1     113.728 125.863 136.485  0.00  0.00    +0.000 A 
ATOM     19  C   UNL     1     113.112 126.135 137.746  0.00  0.00    +0.000 A 
ATOM     20  C   UNL     1     114.369 125.517 136.873  0.00  0.00    +0.000 A 
ATOM     21  C   UNL     1     113.753 125.789 138.133  0.00  0.00    +0.000 A 
ATOM     22  C   UNL     1     114.381 125.480 137.697  0.00  0.00    +0.000 A 
ENDBRANCH   6  17
BRANCH   5  23
ATOM     23  O   UNL     1     112.941 127.814 136.893  0.00  0.00    +0.000 OA
BRANCH  23  31
ATOM     24  O   UNL     1     113.526 128.248 135.663  0.00  0.00    +0.000 OA
ATOM     25  O   UNL     1     114.255 130.348 136.750  0.00  0.00    +0.000 OA
ATOM     26  O   UNL     1     113.427 129.215 137.617  0.00  0.00    +0.000 OA
ATOM     27  O   UNL     1     114.597 130.081 135.158  0.00  0.00    +0.000 OA
ATOM     28  C   UNL     1     114.013 129.648 136.388  0.00  0.00    +0.000 C 
ATOM     29  C   UNL     1     113.599 129.082 136.821  0.00  0.00    +0.000 C 
ATOM     30  C   UNL     1     114.183 129.514 135.591  0.00  0.00    +0.000 C 
ATOM     31  C   UNL     1     113.355 128.381 136.459  0.00  0.00    +0.000 C 
ATOM     32  C   UNL     1     113.940 128.815 135.229  0.00  0.00    +0.000 C 
ENDBRANCH  23  31
ENDBRANCH   5  23
TORSDOF 3
ENDMDL
MODEL 6
REMARK VINA RESULT:      -9.8      9.765     11.686
REMARK  Name = 44259214
REMARK  3 active torsions:
REMARK  status: ('A' for Active; 'I' for Inactive)
REMARK    1  A    between atoms: O_2  and  C_15
REMARK    2  A    between atoms: O_2  and  C_17
REMARK    3  A    between atoms: C_18  and  C_22
REMARK                            x       y       z     vdW  Elec       q    Type
REMARK                         _______ _______ _______ _____ _____    ______ ____
ROOT
ATOM      1  O   UNL     1     113.377 126.221 138.733  0.00  0.00    +0.000 OA
ATOM      2  O   UNL     1     111.000 125.686 138.295  0.00  0.00    +0.000 OA
ATOM      3  O   UNL     1     110.614 126.221 139.578  0.00  0.00    +0.000 OA
ATOM      4  O   UNL     1     112.671 127.318 141.337  0.00  0.00    +0.000 OA
ATOM      5  C   UNL     1     112.366 125.685 137.876  0.00  0.00    +0.000 A 
ATOM      6  C   UNL     1     113.158 125.863 138.022  0.00  0.00    +0.000 A 
ATOM      7  C   UNL     1     111.793 125.864 138.441  0.00  0.00    +0.000 A 
ATOM      8  C   UNL     1     112.011 126.221 139.152  0.00  0.00    +0.000 A 
ATOM      9  C   UNL     1     112.803 126.399 139.298  0.00  0.00    +0.000 A 
ATOM     10  C   UNL     1     113.042 126.772 140.034  0.00  0.00    +0.000 A 
ATOM     11  C   UNL     1     111.403 126.403 139.733  0.00  0.00    +0.000 A 
ATOM     12  C   UNL     1     112.449 126.960 140.626  0.00  0.00    +0.000 A 
ATOM     13  C   UNL     1     111.625 126.775 140.474  0.00  0.00    +0.000 A 
ATOM     14  C   UNL     1     113.837 126.946 140.171  0.00  0.00    +0.000 C 
ENDROOT
BRANCH   6  17
ATOM     15  O   UNL     1     114.891 126.689 135.904  0.00  0.00    +0.000 OA
ATOM     16  O   UNL     1     115.456 125.145 135.764  0.00  0.00    +0.000 OA
ATOM     17  C   UNL     1     113.733 125.684 137.457  0.00  0.00    +0.000 A 
ATOM     18  C   UNL     1     114.025 126.277 136.963  0.00  0.00    +0.000 A 
ATOM     19  C   UNL     1     114.015 124.912 137.387  0.00  0.00    +0.000 A 
ATOM     20  C   UNL     1     114.599 126.097 136.399  0.00  0.00    +0.000 A 
ATOM     21  C   UNL     1     114.590 124.733 136.823  0.00  0.00    +0.000 A 
ATOM     22  C   UNL     1     114.881 125.325 136.328  0.00  0.00    +0.000 A 
ENDBRANCH   6  17
BRANCH   5  23
ATOM     23  O   UNL     1     112.148 125.328 137.165  0.00  0.00    +0.000 OA
BRANCH  23  31
ATOM     24  O   UNL     1     111.570 126.532 136.658  0.00  0.00    +0.000 OA
ATOM     25  O   UNL     1     110.150 125.206 135.126  0.00  0.00    +0.000 OA
ATOM     26  O   UNL     1     111.202 124.443 136.143  0.00  0.00    +0.000 OA
ATOM     27  O   UNL     1     110.046 126.853 135.130  0.00  0.00    +0.000 OA
ATOM     28  C   UNL     1     110.623 125.648 135.636  0.00  0.00    +0.000 C 
ATOM     29  C   UNL     1     111.149 125.267 136.145  0.00  0.00    +0.000 C 
ATOM     30  C   UNL     1     110.572 126.471 135.639  0.00  0.00    +0.000 C 
ATOM     31  C   UNL     1     111.623 125.709 136.657  0.00  0.00    +0.000 C 
ATOM     32  C   UNL     1     111.045 126.913 136.149  0.00  0.00    +0.000 C 
ENDBRANCH  23  31
ENDBRANCH   5  23
TORSDOF 3
ENDMDL
MODEL 7
REMARK VINA RESULT:      -9.7     10.204     12.420
REMARK  Name = 44259214
REMARK  3 active torsions:
REMARK  status: ('A' for Active; 'I' for Inactive)
REMARK    1  A    between atoms: O_2  and  C_15
REMARK    2  A    between atoms: O_2  and  C_17
REMARK    3  A    between atoms: C_18  and  C_22
REMARK                            x       y       z     vdW  Elec       q    Type
REMARK                         _______ _______ _______ _____ _____    ______ ____
ROOT
ATOM      1  O   UNL     1     113.604 127.646 136.484  0.00  0.00    +0.000 OA
ATOM      2  O   UNL     1     112.367 128.487 138.456  0.00  0.00    +0.000 OA
ATOM      3  O   UNL     1     112.626 129.853 138.071  0.00  0.00    +0.000 OA
ATOM      4  O   UNL     1     114.165 130.377 135.645  0.00  0.00    +0.000 OA
ATOM      5  C   UNL     1     112.850 127.394 137.673  0.00  0.00    +0.000 A 
ATOM      6  C   UNL     1     113.262 127.114 137.016  0.00  0.00    +0.000 A 
ATOM      7  C   UNL     1     112.779 128.207 137.799  0.00  0.00    +0.000 A 
ATOM      8  C   UNL     1     113.120 128.738 137.269  0.00  0.00    +0.000 A 
ATOM      9  C   UNL     1     113.533 128.457 136.612  0.00  0.00    +0.000 A 
ATOM     10  C   UNL     1     113.893 129.001 136.052  0.00  0.00    +0.000 A 
ATOM     11  C   UNL     1     113.040 129.582 137.411  0.00  0.00    +0.000 A 
ATOM     12  C   UNL     1     113.822 129.848 136.178  0.00  0.00    +0.000 A 
ATOM     13  C   UNL     1     113.393 130.140 136.862  0.00  0.00    +0.000 A 
ATOM     14  C   UNL     1     114.303 128.711 135.397  0.00  0.00    +0.000 C 
ENDROOT
BRANCH   6  17
ATOM     15  O   UNL     1     114.812 124.716 137.132  0.00  0.00    +0.000 OA
ATOM     16  O   UNL     1     113.544 123.865 136.506  0.00  0.00    +0.000 OA
ATOM     17  C   UNL     1     113.333 126.302 136.888  0.00  0.00    +0.000 A 
ATOM     18  C   UNL     1     114.038 125.915 137.074  0.00  0.00    +0.000 A 
ATOM     19  C   UNL     1     112.699 125.876 136.575  0.00  0.00    +0.000 A 
ATOM     20  C   UNL     1     114.108 125.103 136.946  0.00  0.00    +0.000 A 
ATOM     21  C   UNL     1     112.770 125.065 136.448  0.00  0.00    +0.000 A 
ATOM     22  C   UNL     1     113.474 124.678 136.634  0.00  0.00    +0.000 A 
ENDBRANCH   6  17
BRANCH   5  23
ATOM     23  O   UNL     1     112.509 126.863 138.203  0.00  0.00    +0.000 OA
BRANCH  23  31
ATOM     24  O   UNL     1     113.491 127.121 139.208  0.00  0.00    +0.000 OA
ATOM     25  O   UNL     1     111.898 126.389 140.954  0.00  0.00    +0.000 OA
ATOM     26  O   UNL     1     111.446 126.374 139.367  0.00  0.00    +0.000 OA
ATOM     27  O   UNL     1     113.411 126.892 141.377  0.00  0.00    +0.000 OA
ATOM     28  C   UNL     1     112.428 126.633 140.373  0.00  0.00    +0.000 C 
ATOM     29  C   UNL     1     112.203 126.626 139.579  0.00  0.00    +0.000 C 
ATOM     30  C   UNL     1     113.186 126.884 140.583  0.00  0.00    +0.000 C 
ATOM     31  C   UNL     1     112.734 126.870 138.996  0.00  0.00    +0.000 C 
ATOM     32  C   UNL     1     113.716 127.129 140.002  0.00  0.00    +0.000 C 
ENDBRANCH  23  31
ENDBRANCH   5  23
TORSDOF 3
ENDMDL
MODEL 8
REMARK VINA RESULT:      -9.6     10.769     12.105
REMARK  Name = 44259214
REMARK  3 active torsions:
REMARK  status: ('A' for Active; 'I' for Inactive)
REMARK    1  A    between atoms: O_2  and  C_15
REMARK    2  A    between atoms: O_2  and  C_17
REMARK    3  A    between atoms: C_18  and  C_22
REMARK                            x       y       z     vdW  Elec       q    Type
REMARK                         _______ _______ _______ _____ _____    ______ ____
ROOT
ATOM      1  O   UNL     1     111.650 125.457 136.468  0.00  0.00    +0.000 OA
ATOM      2  O   UNL     1     113.416 127.175 136.232  0.00  0.00    +0.000 OA
ATOM      3  O   UNL     1     114.434 126.219 136.590  0.00  0.00    +0.000 OA
ATOM      4  O   UNL     1     113.651 123.472 137.198  0.00  0.00    +0.000 OA
ATOM      5  C   UNL     1     112.038 126.801 136.171  0.00  0.00    +0.000 A 
ATOM      6  C   UNL     1     111.450 126.228 136.249  0.00  0.00    +0.000 A 
ATOM      7  C   UNL     1     112.827 126.603 136.311  0.00  0.00    +0.000 A 
ATOM      8  C   UNL     1     113.027 125.833 136.528  0.00  0.00    +0.000 A 
ATOM      9  C   UNL     1     112.439 125.261 136.607  0.00  0.00    +0.000 A 
ATOM     10  C   UNL     1     112.635 124.455 136.834  0.00  0.00    +0.000 A 
ATOM     11  C   UNL     1     113.853 125.640 136.671  0.00  0.00    +0.000 A 
ATOM     12  C   UNL     1     113.454 124.243 136.980  0.00  0.00    +0.000 A 
ATOM     13  C   UNL     1     114.067 124.840 136.898  0.00  0.00    +0.000 A 
ATOM     14  C   UNL     1     112.039 123.889 136.910  0.00  0.00    +0.000 C 
ENDROOT
BRANCH   6  17
ATOM     15  O   UNL     1     108.842 126.854 137.237  0.00  0.00    +0.000 OA
ATOM     16  O   UNL     1     108.294 127.016 135.689  0.00  0.00    +0.000 OA
ATOM     17  C   UNL     1     110.661 126.425 136.110  0.00  0.00    +0.000 A 
ATOM     18  C   UNL     1     110.146 126.541 136.744  0.00  0.00    +0.000 A 
ATOM     19  C   UNL     1     110.387 126.506 135.335  0.00  0.00    +0.000 A 
ATOM     20  C   UNL     1     109.357 126.738 136.603  0.00  0.00    +0.000 A 
ATOM     21  C   UNL     1     109.598 126.703 135.196  0.00  0.00    +0.000 A 
ATOM     22  C   UNL     1     109.083 126.819 135.830  0.00  0.00    +0.000 A 
ENDBRANCH   6  17
BRANCH   5  23
ATOM     23  O   UNL     1     111.838 127.570 135.953  0.00  0.00    +0.000 OA
BRANCH  23  31
ATOM     24  O   UNL     1     112.060 128.087 137.267  0.00  0.00    +0.000 OA
ATOM     25  O   UNL     1     112.510 130.325 136.312  0.00  0.00    +0.000 OA
ATOM     26  O   UNL     1     112.138 129.063 135.316  0.00  0.00    +0.000 OA
ATOM     27  O   UNL     1     112.581 130.094 137.944  0.00  0.00    +0.000 OA
ATOM     28  C   UNL     1     112.360 129.579 136.630  0.00  0.00    +0.000 C 
ATOM     29  C   UNL     1     112.174 128.948 136.132  0.00  0.00    +0.000 C 
ATOM     30  C   UNL     1     112.396 129.463 137.447  0.00  0.00    +0.000 C 
ATOM     31  C   UNL     1     112.024 128.201 136.451  0.00  0.00    +0.000 C 
ATOM     32  C   UNL     1     112.246 128.718 137.765  0.00  0.00    +0.000 C 
ENDBRANCH  23  31
ENDBRANCH   5  23
TORSDOF 3
ENDMDL
MODEL 9
REMARK VINA RESULT:      -9.6      1.807      4.216
REMARK  Name = 44259214
REMARK  3 active torsions:
REMARK  status: ('A' for Active; 'I' for Inactive)
REMARK    1  A    between atoms: O_2  and  C_15
REMARK    2  A    between atoms: O_2  and  C_17
REMARK    3  A    between atoms: C_18  and  C_22
REMARK                            x       y       z     vdW  Elec       q    Type
REMARK                         _______ _______ _______ _____ _____    ______ ____
ROOT
ATOM      1  O   UNL     1     104.576 124.334 147.026  0.00  0.00    +0.000 OA
ATOM      2  O   UNL     1     103.189 125.941 148.299  0.00  0.00    +0.000 OA
ATOM      3  O   UNL     1     101.979 125.321 147.818  0.00  0.00    +0.000 OA
ATOM      4  O   UNL     1     102.175 123.032 146.014  0.00  0.00    +0.000 OA
ATOM      5  C   UNL     1     104.475 125.454 147.908  0.00  0.00    +0.000 A 
ATOM      6  C   UNL     1     104.937 124.918 147.484  0.00  0.00    +0.000 A 
ATOM      7  C   UNL     1     103.651 125.405 147.874  0.00  0.00    +0.000 A 
ATOM      8  C   UNL     1     103.291 124.822 147.417  0.00  0.00    +0.000 A 
ATOM      9  C   UNL     1     103.753 124.286 146.993  0.00  0.00    +0.000 A 
ATOM     10  C   UNL     1     103.389 123.673 146.512  0.00  0.00    +0.000 A 
ATOM     11  C   UNL     1     102.433 124.781 147.390  0.00  0.00    +0.000 A 
ATOM     12  C   UNL     1     102.533 123.618 146.473  0.00  0.00    +0.000 A 
ATOM     13  C   UNL     1     102.051 124.176 146.915  0.00  0.00    +0.000 A 
ATOM     14  C   UNL     1     103.860 123.142 146.091  0.00  0.00    +0.000 C 
ENDROOT
BRANCH   6  17
ATOM     15  O   UNL     1     107.426 125.639 146.279  0.00  0.00    +0.000 OA
ATOM     16  O   UNL     1     108.229 125.108 147.620  0.00  0.00    +0.000 OA
ATOM     17  C   UNL     1     105.760 124.966 147.517  0.00  0.00    +0.000 A 
ATOM     18  C   UNL     1     106.181 125.279 146.881  0.00  0.00    +0.000 A 
ATOM     19  C   UNL     1     106.161 124.700 148.188  0.00  0.00    +0.000 A 
ATOM     20  C   UNL     1     107.004 125.326 146.916  0.00  0.00    +0.000 A 
ATOM     21  C   UNL     1     106.984 124.748 148.221  0.00  0.00    +0.000 A 
ATOM     22  C   UNL     1     107.406 125.061 147.585  0.00  0.00    +0.000 A 
ENDBRANCH   6  17
BRANCH   5  23
ATOM     23  O   UNL     1     104.835 126.037 148.366  0.00  0.00    +0.000 OA
BRANCH  23  31
ATOM     24  O   UNL     1     104.542 127.085 147.439  0.00  0.00    +0.000 OA
ATOM     25  O   UNL     1     104.521 128.722 149.294  0.00  0.00    +0.000 OA
ATOM     26  O   UNL     1     104.821 127.129 149.603  0.00  0.00    +0.000 OA
ATOM     27  O   UNL     1     104.235 129.223 147.748  0.00  0.00    +0.000 OA
ATOM     28  C   UNL     1     104.528 128.176 148.676  0.00  0.00    +0.000 C 
ATOM     29  C   UNL     1     104.678 127.380 148.830  0.00  0.00    +0.000 C 
ATOM     30  C   UNL     1     104.385 128.426 147.903  0.00  0.00    +0.000 C 
ATOM     31  C   UNL     1     104.685 126.833 148.211  0.00  0.00    +0.000 C 
ATOM     32  C   UNL     1     104.392 127.881 147.284  0.00  0.00    +0.000 C 
ENDBRANCH  23  31
ENDBRANCH   5  23
TORSDOF 3
ENDMDL
MODEL 10
REMARK VINA RESULT:      -9.4     11.042     12.948
REMARK  Name = 44259214
REMARK  3 active torsions:
REMARK  status: ('A' for Active; 'I' for Inactive)
REMARK    1  A    between atoms: O_2  and  C_15
REMARK    2  A    between atoms: O_2  and  C_17
REMARK    3  A    between atoms: C_18  and  C_22
REMARK                            x       y       z     vdW  Elec       q    Type
REMARK                         _______ _______ _______ _____ _____    ______ ____
ROOT
ATOM      1  O   UNL     1     112.471 130.742 136.694  0.00  0.00    +0.000 OA
ATOM      2  O   UNL     1     111.212 129.301 135.124  0.00  0.00    +0.000 OA
ATOM      3  O   UNL     1     112.437 128.739 134.612  0.00  0.00    +0.000 OA
ATOM      4  O   UNL     1     114.986 129.652 135.710  0.00  0.00    +0.000 OA
ATOM      5  C   UNL     1     111.226 130.291 136.154  0.00  0.00    +0.000 A 
ATOM      6  C   UNL     1     111.646 130.772 136.677  0.00  0.00    +0.000 A 
ATOM      7  C   UNL     1     111.632 129.781 135.648  0.00  0.00    +0.000 A 
ATOM      8  C   UNL     1     112.455 129.751 135.665  0.00  0.00    +0.000 A 
ATOM      9  C   UNL     1     112.875 130.231 136.188  0.00  0.00    +0.000 A 
ATOM     10  C   UNL     1     113.734 130.209 136.215  0.00  0.00    +0.000 A 
ATOM     11  C   UNL     1     112.866 129.215 135.132  0.00  0.00    +0.000 A 
ATOM     12  C   UNL     1     114.161 129.679 135.690  0.00  0.00    +0.000 A 
ATOM     13  C   UNL     1     113.724 129.179 135.145  0.00  0.00    +0.000 A 
ATOM     14  C   UNL     1     114.145 130.693 136.742  0.00  0.00    +0.000 C 
ENDROOT
BRANCH   6  17
ATOM     15  O   UNL     1     110.670 131.412 139.286  0.00  0.00    +0.000 OA
ATOM     16  O   UNL     1     110.030 132.816 138.702  0.00  0.00    +0.000 OA
ATOM     17  C   UNL     1     111.242 131.282 137.184  0.00  0.00    +0.000 A 
ATOM     18  C   UNL     1     111.158 131.091 137.982  0.00  0.00    +0.000 A 
ATOM     19  C   UNL     1     110.922 131.985 136.892  0.00  0.00    +0.000 A 
ATOM     20  C   UNL     1     110.754 131.603 138.488  0.00  0.00    +0.000 A 
ATOM     21  C   UNL     1     110.518 132.495 137.398  0.00  0.00    +0.000 A 
ATOM     22  C   UNL     1     110.434 132.304 138.196  0.00  0.00    +0.000 A 
ENDBRANCH   6  17
BRANCH   5  23
ATOM     23  O   UNL     1     110.403 130.322 136.137  0.00  0.00    +0.000 OA
BRANCH  23  31
ATOM     24  O   UNL     1     110.264 129.045 136.764  0.00  0.00    +0.000 OA
ATOM     25  O   UNL     1     108.036 128.775 135.720  0.00  0.00    +0.000 OA
ATOM     26  O   UNL     1     108.918 130.142 135.441  0.00  0.00    +0.000 OA
ATOM     27  O   UNL     1     108.640 127.588 136.694  0.00  0.00    +0.000 OA
ATOM     28  C   UNL     1     108.778 128.864 136.067  0.00  0.00    +0.000 C 
ATOM     29  C   UNL     1     109.219 129.548 135.928  0.00  0.00    +0.000 C 
ATOM     30  C   UNL     1     109.081 128.271 136.555  0.00  0.00    +0.000 C 
ATOM     31  C   UNL     1     109.962 129.638 136.277  0.00  0.00    +0.000 C 
ATOM     32  C   UNL     1     109.823 128.361 136.903  0.00  0.00    +0.000 C 
ENDBRANCH  23  31
ENDBRANCH   5  23
TORSDOF 3
ENDMDL
