MODEL 1
REMARK VINA RESULT:      -9.8      0.000      0.000
REMARK  Name = 45783227
REMARK  10 active torsions:
REMARK  status: ('A' for Active; 'I' for Inactive)
REMARK    1  A    between atoms: O_4  and  C_16
REMARK    2  A    between atoms: O_4  and  C_18
REMARK    3  A    between atoms: O_6  and  C_17
REMARK    4  A    between atoms: O_6  and  C_21
REMARK    5  A    between atoms: C_14  and  C_17
REMARK    6  A    between atoms: C_21  and  C_25
REMARK    7  A    between atoms: C_24  and  C_26
REMARK    8  A    between atoms: C_27  and  C_28
REMARK    9  A    between atoms: C_29  and  C_30
REMARK   10  A    between atoms: C_30  and  C_33
REMARK                            x       y       z     vdW  Elec       q    Type
REMARK                         _______ _______ _______ _____ _____    ______ ____
ROOT
ATOM      1  O   UNL     1     112.756 125.569 136.207  0.00  0.00    +0.000 OA
ATOM      2  O   UNL     1     114.658 125.394 137.262  0.00  0.00    +0.000 OA
ATOM      3  O   UNL     1     114.033 123.885 137.496  0.00  0.00    +0.000 OA
ATOM      4  O   UNL     1     112.556 123.499 136.870  0.00  0.00    +0.000 OA
ATOM      5  C   UNL     1     113.920 125.200 136.950  0.00  0.00    +0.000 C 
ATOM      6  C   UNL     1     113.607 124.446 137.066  0.00  0.00    +0.000 C 
ATOM      7  C   UNL     1     113.494 125.761 136.520  0.00  0.00    +0.000 C 
ATOM      8  C   UNL     1     112.868 124.253 136.753  0.00  0.00    +0.000 C 
ATOM      9  C   UNL     1     112.443 124.814 136.324  0.00  0.00    +0.000 C 
ENDROOT
BRANCH   9  10
ATOM     10  O   UNL     1     111.704 124.621 136.011  0.00  0.00    +0.000 OA
BRANCH  10  11
ATOM     11  C   UNL     1     111.104 125.186 135.991  0.00  0.00    +0.000 A 
ATOM     12  C   UNL     1     110.847 125.490 135.268  0.00  0.00    +0.000 A 
ATOM     13  C   UNL     1     110.761 125.448 136.694  0.00  0.00    +0.000 A 
ATOM     14  C   UNL     1     110.246 126.055 135.248  0.00  0.00    +0.000 A 
ATOM     15  C   UNL     1     110.160 126.013 136.674  0.00  0.00    +0.000 A 
ATOM     16  C   UNL     1     109.902 126.317 135.952  0.00  0.00    +0.000 A 
BRANCH  16  17
ATOM     17  C   UNL     1     109.302 126.882 135.933  0.00  0.00    +0.000 C 
ATOM     18  C   UNL     1     109.484 127.672 135.780  0.00  0.00    +0.000 C 
BRANCH  18  20
ATOM     19  O   UNL     1     108.105 128.018 135.925  0.00  0.00    +0.000 OA
ATOM     20  C   UNL     1     108.884 128.237 135.760  0.00  0.00    +0.000 C 
BRANCH  20  23
ATOM     21  O   UNL     1     108.418 129.449 136.779  0.00  0.00    +0.000 OA
ATOM     22  O   UNL     1     109.590 131.376 135.024  0.00  0.00    +0.000 OA
ATOM     23  C   UNL     1     109.061 129.022 135.576  0.00  0.00    +0.000 A 
ATOM     24  C   UNL     1     108.827 129.628 136.086  0.00  0.00    +0.000 A 
ATOM     25  C   UNL     1     109.470 129.201 134.882  0.00  0.00    +0.000 A 
ATOM     26  C   UNL     1     109.004 130.412 135.901  0.00  0.00    +0.000 A 
ATOM     27  C   UNL     1     109.646 129.986 134.699  0.00  0.00    +0.000 A 
ATOM     28  C   UNL     1     109.414 130.591 135.208  0.00  0.00    +0.000 A 
ENDBRANCH  20  23
ENDBRANCH  18  20
ENDBRANCH  16  17
ENDBRANCH  10  11
ENDBRANCH   9  10
BRANCH   7  29
ATOM     29  C   UNL     1     113.807 126.517 136.403  0.00  0.00    +0.000 C 
BRANCH  29  30
ATOM     30  O   UNL     1     113.303 127.167 136.339  0.00  0.00    +0.000 OA
BRANCH  30  32
ATOM     31  O   UNL     1     114.202 128.106 135.748  0.00  0.00    +0.000 OA
ATOM     32  C   UNL     1     113.616 127.928 136.300  0.00  0.00    +0.000 C 
BRANCH  32  33
ATOM     33  C   UNL     1     113.344 128.513 136.814  0.00  0.00    +0.000 C 
ATOM     34  C   UNL     1     112.754 129.035 136.570  0.00  0.00    +0.000 C 
BRANCH  34  36
ATOM     35  O   UNL     1     111.663 131.374 138.627  0.00  0.00    +0.000 OA
ATOM     36  C   UNL     1     112.481 129.620 137.084  0.00  0.00    +0.000 A 
ATOM     37  C   UNL     1     112.637 130.414 136.925  0.00  0.00    +0.000 A 
ATOM     38  C   UNL     1     112.053 129.410 137.757  0.00  0.00    +0.000 A 
ATOM     39  C   UNL     1     112.364 130.999 137.439  0.00  0.00    +0.000 A 
ATOM     40  C   UNL     1     111.780 129.995 138.271  0.00  0.00    +0.000 A 
ATOM     41  C   UNL     1     111.936 130.790 138.113  0.00  0.00    +0.000 A 
ENDBRANCH  34  36
ENDBRANCH  32  33
ENDBRANCH  30  32
ENDBRANCH  29  30
ENDBRANCH   7  29
TORSDOF 10
ENDMDL
MODEL 2
REMARK VINA RESULT:      -9.4      1.656      5.156
REMARK  Name = 45783227
REMARK  10 active torsions:
REMARK  status: ('A' for Active; 'I' for Inactive)
REMARK    1  A    between atoms: O_4  and  C_16
REMARK    2  A    between atoms: O_4  and  C_18
REMARK    3  A    between atoms: O_6  and  C_17
REMARK    4  A    between atoms: O_6  and  C_21
REMARK    5  A    between atoms: C_14  and  C_17
REMARK    6  A    between atoms: C_21  and  C_25
REMARK    7  A    between atoms: C_24  and  C_26
REMARK    8  A    between atoms: C_27  and  C_28
REMARK    9  A    between atoms: C_29  and  C_30
REMARK   10  A    between atoms: C_30  and  C_33
REMARK                            x       y       z     vdW  Elec       q    Type
REMARK                         _______ _______ _______ _____ _____    ______ ____
ROOT
ATOM      1  O   UNL     1     110.011 129.253 136.091  0.00  0.00    +0.000 OA
ATOM      2  O   UNL     1     109.610 130.935 137.423  0.00  0.00    +0.000 OA
ATOM      3  O   UNL     1     108.135 130.743 136.710  0.00  0.00    +0.000 OA
ATOM      4  O   UNL     1     107.910 129.558 135.584  0.00  0.00    +0.000 OA
ATOM      5  C   UNL     1     109.497 130.342 136.860  0.00  0.00    +0.000 C 
ATOM      6  C   UNL     1     108.760 130.246 136.504  0.00  0.00    +0.000 C 
ATOM      7  C   UNL     1     110.123 129.846 136.654  0.00  0.00    +0.000 C 
ATOM      8  C   UNL     1     108.647 129.654 135.941  0.00  0.00    +0.000 C 
ATOM      9  C   UNL     1     109.273 129.157 135.734  0.00  0.00    +0.000 C 
ENDROOT
BRANCH   9  10
ATOM     10  O   UNL     1     109.161 128.564 135.172  0.00  0.00    +0.000 OA
BRANCH  10  11
ATOM     11  C   UNL     1     109.522 127.828 135.270  0.00  0.00    +0.000 A 
ATOM     12  C   UNL     1     110.163 127.617 134.796  0.00  0.00    +0.000 A 
ATOM     13  C   UNL     1     109.241 127.305 135.841  0.00  0.00    +0.000 A 
ATOM     14  C   UNL     1     110.524 126.882 134.894  0.00  0.00    +0.000 A 
ATOM     15  C   UNL     1     109.601 126.569 135.939  0.00  0.00    +0.000 A 
ATOM     16  C   UNL     1     110.243 126.357 135.466  0.00  0.00    +0.000 A 
BRANCH  16  17
ATOM     17  C   UNL     1     110.603 125.622 135.564  0.00  0.00    +0.000 C 
ATOM     18  C   UNL     1     111.292 125.557 136.014  0.00  0.00    +0.000 C 
BRANCH  18  20
ATOM     19  O   UNL     1     111.267 124.136 135.861  0.00  0.00    +0.000 OA
ATOM     20  C   UNL     1     111.652 124.821 136.112  0.00  0.00    +0.000 C 
BRANCH  20  23
ATOM     21  O   UNL     1     111.872 123.887 137.454  0.00  0.00    +0.000 OA
ATOM     22  O   UNL     1     114.636 124.615 137.507  0.00  0.00    +0.000 OA
ATOM     23  C   UNL     1     112.398 124.770 136.460  0.00  0.00    +0.000 A 
ATOM     24  C   UNL     1     112.508 124.303 137.132  0.00  0.00    +0.000 A 
ATOM     25  C   UNL     1     113.034 125.186 136.138  0.00  0.00    +0.000 A 
ATOM     26  C   UNL     1     113.254 124.251 137.480  0.00  0.00    +0.000 A 
ATOM     27  C   UNL     1     113.780 125.133 136.487  0.00  0.00    +0.000 A 
ATOM     28  C   UNL     1     113.890 124.667 137.158  0.00  0.00    +0.000 A 
ENDBRANCH  20  23
ENDBRANCH  18  20
ENDBRANCH  16  17
ENDBRANCH  10  11
ENDBRANCH   9  10
BRANCH   7  29
ATOM     29  C   UNL     1     110.861 129.941 137.011  0.00  0.00    +0.000 C 
BRANCH  29  30
ATOM     30  O   UNL     1     111.342 129.285 137.147  0.00  0.00    +0.000 OA
BRANCH  30  32
ATOM     31  O   UNL     1     112.597 129.901 137.438  0.00  0.00    +0.000 OA
ATOM     32  C   UNL     1     112.009 129.355 137.626  0.00  0.00    +0.000 C 
BRANCH  32  33
ATOM     33  C   UNL     1     112.088 128.878 138.295  0.00  0.00    +0.000 C 
ATOM     34  C   UNL     1     112.477 128.153 138.242  0.00  0.00    +0.000 C 
BRANCH  34  36
ATOM     35  O   UNL     1     112.792 126.246 140.916  0.00  0.00    +0.000 OA
ATOM     36  C   UNL     1     112.556 127.676 138.910  0.00  0.00    +0.000 A 
ATOM     37  C   UNL     1     111.899 127.278 139.212  0.00  0.00    +0.000 A 
ATOM     38  C   UNL     1     113.290 127.598 139.276  0.00  0.00    +0.000 A 
ATOM     39  C   UNL     1     111.978 126.802 139.881  0.00  0.00    +0.000 A 
ATOM     40  C   UNL     1     113.369 127.121 139.945  0.00  0.00    +0.000 A 
ATOM     41  C   UNL     1     112.713 126.723 140.248  0.00  0.00    +0.000 A 
ENDBRANCH  34  36
ENDBRANCH  32  33
ENDBRANCH  30  32
ENDBRANCH  29  30
ENDBRANCH   7  29
TORSDOF 10
ENDMDL
MODEL 3
REMARK VINA RESULT:      -9.1      1.262      5.378
REMARK  Name = 45783227
REMARK  10 active torsions:
REMARK  status: ('A' for Active; 'I' for Inactive)
REMARK    1  A    between atoms: O_4  and  C_16
REMARK    2  A    between atoms: O_4  and  C_18
REMARK    3  A    between atoms: O_6  and  C_17
REMARK    4  A    between atoms: O_6  and  C_21
REMARK    5  A    between atoms: C_14  and  C_17
REMARK    6  A    between atoms: C_21  and  C_25
REMARK    7  A    between atoms: C_24  and  C_26
REMARK    8  A    between atoms: C_27  and  C_28
REMARK    9  A    between atoms: C_29  and  C_30
REMARK   10  A    between atoms: C_30  and  C_33
REMARK                            x       y       z     vdW  Elec       q    Type
REMARK                         _______ _______ _______ _____ _____    ______ ____
ROOT
ATOM      1  O   UNL     1     109.590 130.826 136.795  0.00  0.00    +0.000 OA
ATOM      2  O   UNL     1     109.259 131.980 138.618  0.00  0.00    +0.000 OA
ATOM      3  O   UNL     1     107.811 132.183 137.854  0.00  0.00    +0.000 OA
ATOM      4  O   UNL     1     107.548 131.481 136.384  0.00  0.00    +0.000 OA
ATOM      5  C   UNL     1     109.127 131.629 137.883  0.00  0.00    +0.000 C 
ATOM      6  C   UNL     1     108.404 131.731 137.501  0.00  0.00    +0.000 C 
ATOM      7  C   UNL     1     109.720 131.177 137.530  0.00  0.00    +0.000 C 
ATOM      8  C   UNL     1     108.272 131.380 136.765  0.00  0.00    +0.000 C 
ATOM      9  C   UNL     1     108.865 130.928 136.412  0.00  0.00    +0.000 C 
ENDROOT
BRANCH   9  10
ATOM     10  O   UNL     1     108.734 130.577 135.677  0.00  0.00    +0.000 OA
BRANCH  10  11
ATOM     11  C   UNL     1     108.939 129.788 135.554  0.00  0.00    +0.000 A 
ATOM     12  C   UNL     1     109.565 129.598 135.051  0.00  0.00    +0.000 A 
ATOM     13  C   UNL     1     108.518 129.189 135.934  0.00  0.00    +0.000 A 
ATOM     14  C   UNL     1     109.770 128.808 134.928  0.00  0.00    +0.000 A 
ATOM     15  C   UNL     1     108.723 128.399 135.811  0.00  0.00    +0.000 A 
ATOM     16  C   UNL     1     109.348 128.208 135.308  0.00  0.00    +0.000 A 
BRANCH  16  17
ATOM     17  C   UNL     1     109.553 127.419 135.185  0.00  0.00    +0.000 C 
ATOM     18  C   UNL     1     109.916 126.988 135.789  0.00  0.00    +0.000 C 
BRANCH  18  20
ATOM     19  O   UNL     1     109.933 125.830 134.951  0.00  0.00    +0.000 OA
ATOM     20  C   UNL     1     110.121 126.199 135.666  0.00  0.00    +0.000 C 
BRANCH  20  23
ATOM     21  O   UNL     1     111.162 124.985 135.258  0.00  0.00    +0.000 OA
ATOM     22  O   UNL     1     111.691 124.510 138.026  0.00  0.00    +0.000 OA
ATOM     23  C   UNL     1     110.513 125.777 136.256  0.00  0.00    +0.000 A 
ATOM     24  C   UNL     1     111.034 125.170 136.052  0.00  0.00    +0.000 A 
ATOM     25  C   UNL     1     110.385 125.961 137.050  0.00  0.00    +0.000 A 
ATOM     26  C   UNL     1     111.426 124.748 136.642  0.00  0.00    +0.000 A 
ATOM     27  C   UNL     1     110.778 125.539 137.640  0.00  0.00    +0.000 A 
ATOM     28  C   UNL     1     111.298 124.932 137.436  0.00  0.00    +0.000 A 
ENDBRANCH  20  23
ENDBRANCH  18  20
ENDBRANCH  16  17
ENDBRANCH  10  11
ENDBRANCH   9  10
BRANCH   7  29
ATOM     29  C   UNL     1     110.445 131.076 137.912  0.00  0.00    +0.000 C 
BRANCH  29  30
ATOM     30  O   UNL     1     111.127 130.932 137.471  0.00  0.00    +0.000 OA
BRANCH  30  32
ATOM     31  O   UNL     1     112.166 131.027 138.447  0.00  0.00    +0.000 OA
ATOM     32  C   UNL     1     111.795 130.615 137.836  0.00  0.00    +0.000 C 
BRANCH  32  33
ATOM     33  C   UNL     1     112.092 129.885 137.592  0.00  0.00    +0.000 C 
ATOM     34  C   UNL     1     112.794 129.848 137.160  0.00  0.00    +0.000 C 
BRANCH  34  36
ATOM     35  O   UNL     1     113.981 126.930 136.181  0.00  0.00    +0.000 OA
ATOM     36  C   UNL     1     113.091 129.119 136.915  0.00  0.00    +0.000 A 
ATOM     37  C   UNL     1     113.206 128.970 136.112  0.00  0.00    +0.000 A 
ATOM     38  C   UNL     1     113.271 128.539 137.473  0.00  0.00    +0.000 A 
ATOM     39  C   UNL     1     113.503 128.240 135.867  0.00  0.00    +0.000 A 
ATOM     40  C   UNL     1     113.568 127.810 137.228  0.00  0.00    +0.000 A 
ATOM     41  C   UNL     1     113.684 127.659 136.425  0.00  0.00    +0.000 A 
ENDBRANCH  34  36
ENDBRANCH  32  33
ENDBRANCH  30  32
ENDBRANCH  29  30
ENDBRANCH   7  29
TORSDOF 10
ENDMDL
MODEL 4
REMARK VINA RESULT:      -8.9      1.164      3.513
REMARK  Name = 45783227
REMARK  10 active torsions:
REMARK  status: ('A' for Active; 'I' for Inactive)
REMARK    1  A    between atoms: O_4  and  C_16
REMARK    2  A    between atoms: O_4  and  C_18
REMARK    3  A    between atoms: O_6  and  C_17
REMARK    4  A    between atoms: O_6  and  C_21
REMARK    5  A    between atoms: C_14  and  C_17
REMARK    6  A    between atoms: C_21  and  C_25
REMARK    7  A    between atoms: C_24  and  C_26
REMARK    8  A    between atoms: C_27  and  C_28
REMARK    9  A    between atoms: C_29  and  C_30
REMARK   10  A    between atoms: C_30  and  C_33
REMARK                            x       y       z     vdW  Elec       q    Type
REMARK                         _______ _______ _______ _____ _____    ______ ____
ROOT
ATOM      1  O   UNL     1     112.475 125.531 136.219  0.00  0.00    +0.000 OA
ATOM      2  O   UNL     1     111.528 123.566 136.293  0.00  0.00    +0.000 OA
ATOM      3  O   UNL     1     112.937 123.264 137.097  0.00  0.00    +0.000 OA
ATOM      4  O   UNL     1     114.038 124.474 137.316  0.00  0.00    +0.000 OA
ATOM      5  C   UNL     1     112.079 124.170 136.403  0.00  0.00    +0.000 C 
ATOM      6  C   UNL     1     112.783 124.020 136.805  0.00  0.00    +0.000 C 
ATOM      7  C   UNL     1     111.925 124.926 136.110  0.00  0.00    +0.000 C 
ATOM      8  C   UNL     1     113.334 124.624 136.914  0.00  0.00    +0.000 C 
ATOM      9  C   UNL     1     113.180 125.380 136.622  0.00  0.00    +0.000 C 
ENDROOT
BRANCH   9  10
ATOM     10  O   UNL     1     113.730 125.985 136.730  0.00  0.00    +0.000 OA
BRANCH  10  11
ATOM     11  C   UNL     1     113.492 126.706 137.053  0.00  0.00    +0.000 A 
ATOM     12  C   UNL     1     113.474 127.383 136.580  0.00  0.00    +0.000 A 
ATOM     13  C   UNL     1     113.272 126.751 137.846  0.00  0.00    +0.000 A 
ATOM     14  C   UNL     1     113.236 128.104 136.902  0.00  0.00    +0.000 A 
ATOM     15  C   UNL     1     113.035 127.472 138.168  0.00  0.00    +0.000 A 
ATOM     16  C   UNL     1     113.016 128.149 137.697  0.00  0.00    +0.000 A 
BRANCH  16  17
ATOM     17  C   UNL     1     112.778 128.870 138.019  0.00  0.00    +0.000 C 
ATOM     18  C   UNL     1     111.977 129.017 138.154  0.00  0.00    +0.000 C 
BRANCH  18  20
ATOM     19  O   UNL     1     112.301 130.317 138.652  0.00  0.00    +0.000 OA
ATOM     20  C   UNL     1     111.739 129.738 138.476  0.00  0.00    +0.000 C 
BRANCH  20  23
ATOM     21  O   UNL     1     111.060 131.168 138.012  0.00  0.00    +0.000 OA
ATOM     22  O   UNL     1     108.543 130.314 139.062  0.00  0.00    +0.000 OA
ATOM     23  C   UNL     1     110.940 129.881 138.623  0.00  0.00    +0.000 A 
ATOM     24  C   UNL     1     110.601 130.597 138.390  0.00  0.00    +0.000 A 
ATOM     25  C   UNL     1     110.481 129.310 139.002  0.00  0.00    +0.000 A 
ATOM     26  C   UNL     1     109.802 130.741 138.537  0.00  0.00    +0.000 A 
ATOM     27  C   UNL     1     109.682 129.455 139.148  0.00  0.00    +0.000 A 
ATOM     28  C   UNL     1     109.342 130.169 138.916  0.00  0.00    +0.000 A 
ENDBRANCH  20  23
ENDBRANCH  18  20
ENDBRANCH  16  17
ENDBRANCH  10  11
ENDBRANCH   9  10
BRANCH   7  29
ATOM     29  C   UNL     1     111.220 125.077 135.708  0.00  0.00    +0.000 C 
BRANCH  29  30
ATOM     30  O   UNL     1     110.800 125.771 135.859  0.00  0.00    +0.000 OA
BRANCH  30  32
ATOM     31  O   UNL     1     109.712 125.480 134.980  0.00  0.00    +0.000 OA
ATOM     32  C   UNL     1     110.222 126.026 135.329  0.00  0.00    +0.000 C 
BRANCH  32  33
ATOM     33  C   UNL     1     110.154 126.828 135.147  0.00  0.00    +0.000 C 
ATOM     34  C   UNL     1     109.671 127.316 135.604  0.00  0.00    +0.000 C 
BRANCH  34  36
ATOM     35  O   UNL     1     109.401 130.523 134.877  0.00  0.00    +0.000 OA
ATOM     36  C   UNL     1     109.604 128.118 135.423  0.00  0.00    +0.000 A 
ATOM     37  C   UNL     1     110.220 128.505 135.034  0.00  0.00    +0.000 A 
ATOM     38  C   UNL     1     108.921 128.531 135.629  0.00  0.00    +0.000 A 
ATOM     39  C   UNL     1     110.152 129.307 134.852  0.00  0.00    +0.000 A 
ATOM     40  C   UNL     1     108.853 129.333 135.448  0.00  0.00    +0.000 A 
ATOM     41  C   UNL     1     109.468 129.721 135.059  0.00  0.00    +0.000 A 
ENDBRANCH  34  36
ENDBRANCH  32  33
ENDBRANCH  30  32
ENDBRANCH  29  30
ENDBRANCH   7  29
TORSDOF 10
ENDMDL
MODEL 5
REMARK VINA RESULT:      -8.8      1.269      1.678
REMARK  Name = 45783227
REMARK  10 active torsions:
REMARK  status: ('A' for Active; 'I' for Inactive)
REMARK    1  A    between atoms: O_4  and  C_16
REMARK    2  A    between atoms: O_4  and  C_18
REMARK    3  A    between atoms: O_6  and  C_17
REMARK    4  A    between atoms: O_6  and  C_21
REMARK    5  A    between atoms: C_14  and  C_17
REMARK    6  A    between atoms: C_21  and  C_25
REMARK    7  A    between atoms: C_24  and  C_26
REMARK    8  A    between atoms: C_27  and  C_28
REMARK    9  A    between atoms: C_29  and  C_30
REMARK   10  A    between atoms: C_30  and  C_33
REMARK                            x       y       z     vdW  Elec       q    Type
REMARK                         _______ _______ _______ _____ _____    ______ ____
ROOT
ATOM      1  O   UNL     1     111.807 125.944 136.611  0.00  0.00    +0.000 OA
ATOM      2  O   UNL     1     112.672 124.665 138.154  0.00  0.00    +0.000 OA
ATOM      3  O   UNL     1     112.049 123.535 137.125  0.00  0.00    +0.000 OA
ATOM      4  O   UNL     1     111.264 124.011 135.754  0.00  0.00    +0.000 OA
ATOM      5  C   UNL     1     112.279 124.903 137.468  0.00  0.00    +0.000 C 
ATOM      6  C   UNL     1     111.968 124.338 136.954  0.00  0.00    +0.000 C 
ATOM      7  C   UNL     1     112.199 125.706 137.296  0.00  0.00    +0.000 C 
ATOM      8  C   UNL     1     111.575 124.576 136.268  0.00  0.00    +0.000 C 
ATOM      9  C   UNL     1     111.495 125.379 136.096  0.00  0.00    +0.000 C 
ENDROOT
BRANCH   9  10
ATOM     10  O   UNL     1     111.103 125.617 135.411  0.00  0.00    +0.000 OA
BRANCH  10  11
ATOM     11  C   UNL     1     110.578 126.253 135.436  0.00  0.00    +0.000 A 
ATOM     12  C   UNL     1     110.769 126.960 135.056  0.00  0.00    +0.000 A 
ATOM     13  C   UNL     1     109.862 126.181 135.839  0.00  0.00    +0.000 A 
ATOM     14  C   UNL     1     110.244 127.596 135.081  0.00  0.00    +0.000 A 
ATOM     15  C   UNL     1     109.337 126.817 135.863  0.00  0.00    +0.000 A 
ATOM     16  C   UNL     1     109.528 127.525 135.485  0.00  0.00    +0.000 A 
BRANCH  16  17
ATOM     17  C   UNL     1     109.003 128.161 135.509  0.00  0.00    +0.000 C 
ATOM     18  C   UNL     1     109.195 128.838 135.940  0.00  0.00    +0.000 C 
BRANCH  18  20
ATOM     19  O   UNL     1     107.871 129.356 135.794  0.00  0.00    +0.000 OA
ATOM     20  C   UNL     1     108.670 129.474 135.965  0.00  0.00    +0.000 C 
BRANCH  20  23
ATOM     21  O   UNL     1     108.623 129.986 137.532  0.00  0.00    +0.000 OA
ATOM     22  O   UNL     1     109.761 132.488 136.749  0.00  0.00    +0.000 OA
ATOM     23  C   UNL     1     108.943 130.227 136.160  0.00  0.00    +0.000 A 
ATOM     24  C   UNL     1     108.920 130.483 136.945  0.00  0.00    +0.000 A 
ATOM     25  C   UNL     1     109.239 130.724 135.572  0.00  0.00    +0.000 A 
ATOM     26  C   UNL     1     109.192 131.237 137.140  0.00  0.00    +0.000 A 
ATOM     27  C   UNL     1     109.512 131.478 135.769  0.00  0.00    +0.000 A 
ATOM     28  C   UNL     1     109.489 131.734 136.552  0.00  0.00    +0.000 A 
ENDBRANCH  20  23
ENDBRANCH  18  20
ENDBRANCH  16  17
ENDBRANCH  10  11
ENDBRANCH   9  10
BRANCH   7  29
ATOM     29  C   UNL     1     112.511 126.271 137.811  0.00  0.00    +0.000 C 
BRANCH  29  30
ATOM     30  O   UNL     1     112.147 127.008 137.883  0.00  0.00    +0.000 OA
BRANCH  30  32
ATOM     31  O   UNL     1     112.601 127.495 139.147  0.00  0.00    +0.000 OA
ATOM     32  C   UNL     1     112.501 127.600 138.335  0.00  0.00    +0.000 C 
BRANCH  32  33
ATOM     33  C   UNL     1     112.756 128.297 137.975  0.00  0.00    +0.000 C 
ATOM     34  C   UNL     1     112.289 128.976 138.012  0.00  0.00    +0.000 C 
BRANCH  34  36
ATOM     35  O   UNL     1     113.308 131.764 136.571  0.00  0.00    +0.000 OA
ATOM     36  C   UNL     1     112.544 129.673 137.652  0.00  0.00    +0.000 A 
ATOM     37  C   UNL     1     112.666 130.351 138.106  0.00  0.00    +0.000 A 
ATOM     38  C   UNL     1     112.676 129.691 136.839  0.00  0.00    +0.000 A 
ATOM     39  C   UNL     1     112.921 131.048 137.746  0.00  0.00    +0.000 A 
ATOM     40  C   UNL     1     112.931 130.388 136.478  0.00  0.00    +0.000 A 
ATOM     41  C   UNL     1     113.054 131.067 136.931  0.00  0.00    +0.000 A 
ENDBRANCH  34  36
ENDBRANCH  32  33
ENDBRANCH  30  32
ENDBRANCH  29  30
ENDBRANCH   7  29
TORSDOF 10
ENDMDL
MODEL 6
REMARK VINA RESULT:      -8.7      2.106      4.932
REMARK  Name = 45783227
REMARK  10 active torsions:
REMARK  status: ('A' for Active; 'I' for Inactive)
REMARK    1  A    between atoms: O_4  and  C_16
REMARK    2  A    between atoms: O_4  and  C_18
REMARK    3  A    between atoms: O_6  and  C_17
REMARK    4  A    between atoms: O_6  and  C_21
REMARK    5  A    between atoms: C_14  and  C_17
REMARK    6  A    between atoms: C_21  and  C_25
REMARK    7  A    between atoms: C_24  and  C_26
REMARK    8  A    between atoms: C_27  and  C_28
REMARK    9  A    between atoms: C_29  and  C_30
REMARK   10  A    between atoms: C_30  and  C_33
REMARK                            x       y       z     vdW  Elec       q    Type
REMARK                         _______ _______ _______ _____ _____    ______ ____
ROOT
ATOM      1  O   UNL     1     113.354 129.049 139.226  0.00  0.00    +0.000 OA
ATOM      2  O   UNL     1     113.240 128.997 141.406  0.00  0.00    +0.000 OA
ATOM      3  O   UNL     1     113.902 130.489 141.163  0.00  0.00    +0.000 OA
ATOM      4  O   UNL     1     114.199 131.021 139.629  0.00  0.00    +0.000 OA
ATOM      5  C   UNL     1     113.389 129.263 140.639  0.00  0.00    +0.000 C 
ATOM      6  C   UNL     1     113.719 130.009 140.518  0.00  0.00    +0.000 C 
ATOM      7  C   UNL     1     113.206 128.783 139.993  0.00  0.00    +0.000 C 
ATOM      8  C   UNL     1     113.868 130.275 139.751  0.00  0.00    +0.000 C 
ATOM      9  C   UNL     1     113.685 129.795 139.105  0.00  0.00    +0.000 C 
ENDROOT
BRANCH   9  10
ATOM     10  O   UNL     1     113.833 130.061 138.338  0.00  0.00    +0.000 OA
BRANCH  10  11
ATOM     11  C   UNL     1     113.290 129.907 137.736  0.00  0.00    +0.000 A 
ATOM     12  C   UNL     1     113.481 129.373 137.136  0.00  0.00    +0.000 A 
ATOM     13  C   UNL     1     112.558 130.285 137.734  0.00  0.00    +0.000 A 
ATOM     14  C   UNL     1     112.939 129.219 136.534  0.00  0.00    +0.000 A 
ATOM     15  C   UNL     1     112.016 130.131 137.132  0.00  0.00    +0.000 A 
ATOM     16  C   UNL     1     112.205 129.598 136.532  0.00  0.00    +0.000 A 
BRANCH  16  17
ATOM     17  C   UNL     1     111.663 129.444 135.930  0.00  0.00    +0.000 C 
ATOM     18  C   UNL     1     111.213 128.752 135.947  0.00  0.00    +0.000 C 
BRANCH  18  20
ATOM     19  O   UNL     1     110.407 129.212 134.860  0.00  0.00    +0.000 OA
ATOM     20  C   UNL     1     110.671 128.598 135.345  0.00  0.00    +0.000 C 
BRANCH  20  23
ATOM     21  O   UNL     1     109.295 128.096 136.104  0.00  0.00    +0.000 OA
ATOM     22  O   UNL     1     109.553 125.529 134.874  0.00  0.00    +0.000 OA
ATOM     23  C   UNL     1     110.392 127.831 135.227  0.00  0.00    +0.000 A 
ATOM     24  C   UNL     1     109.703 127.580 135.607  0.00  0.00    +0.000 A 
ATOM     25  C   UNL     1     110.801 127.315 134.729  0.00  0.00    +0.000 A 
ATOM     26  C   UNL     1     109.424 126.813 135.488  0.00  0.00    +0.000 A 
ATOM     27  C   UNL     1     110.520 126.548 134.612  0.00  0.00    +0.000 A 
ATOM     28  C   UNL     1     109.833 126.297 134.991  0.00  0.00    +0.000 A 
ENDBRANCH  20  23
ENDBRANCH  18  20
ENDBRANCH  16  17
ENDBRANCH  10  11
ENDBRANCH   9  10
BRANCH   7  29
ATOM     29  C   UNL     1     112.874 128.037 140.114  0.00  0.00    +0.000 C 
BRANCH  29  30
ATOM     30  O   UNL     1     112.561 127.616 139.478  0.00  0.00    +0.000 OA
BRANCH  30  32
ATOM     31  O   UNL     1     111.963 126.576 140.252  0.00  0.00    +0.000 OA
ATOM     32  C   UNL     1     112.353 126.824 139.570  0.00  0.00    +0.000 C 
BRANCH  32  33
ATOM     33  C   UNL     1     112.536 126.278 138.978  0.00  0.00    +0.000 C 
ATOM     34  C   UNL     1     111.941 125.987 138.487  0.00  0.00    +0.000 C 
BRANCH  34  36
ATOM     35  O   UNL     1     112.672 123.805 136.121  0.00  0.00    +0.000 OA
ATOM     36  C   UNL     1     112.124 125.442 137.895  0.00  0.00    +0.000 A 
ATOM     37  C   UNL     1     111.630 124.793 137.766  0.00  0.00    +0.000 A 
ATOM     38  C   UNL     1     112.799 125.545 137.434  0.00  0.00    +0.000 A 
ATOM     39  C   UNL     1     111.813 124.248 137.175  0.00  0.00    +0.000 A 
ATOM     40  C   UNL     1     112.982 124.999 136.843  0.00  0.00    +0.000 A 
ATOM     41  C   UNL     1     112.489 124.351 136.713  0.00  0.00    +0.000 A 
ENDBRANCH  34  36
ENDBRANCH  32  33
ENDBRANCH  30  32
ENDBRANCH  29  30
ENDBRANCH   7  29
TORSDOF 10
ENDMDL
MODEL 7
REMARK VINA RESULT:      -8.7      1.506      2.665
REMARK  Name = 45783227
REMARK  10 active torsions:
REMARK  status: ('A' for Active; 'I' for Inactive)
REMARK    1  A    between atoms: O_4  and  C_16
REMARK    2  A    between atoms: O_4  and  C_18
REMARK    3  A    between atoms: O_6  and  C_17
REMARK    4  A    between atoms: O_6  and  C_21
REMARK    5  A    between atoms: C_14  and  C_17
REMARK    6  A    between atoms: C_21  and  C_25
REMARK    7  A    between atoms: C_24  and  C_26
REMARK    8  A    between atoms: C_27  and  C_28
REMARK    9  A    between atoms: C_29  and  C_30
REMARK   10  A    between atoms: C_30  and  C_33
REMARK                            x       y       z     vdW  Elec       q    Type
REMARK                         _______ _______ _______ _____ _____    ______ ____
ROOT
ATOM      1  O   UNL     1     111.282 127.055 135.541  0.00  0.00    +0.000 OA
ATOM      2  O   UNL     1     112.383 125.478 136.574  0.00  0.00    +0.000 OA
ATOM      3  O   UNL     1     111.164 124.607 135.882  0.00  0.00    +0.000 OA
ATOM      4  O   UNL     1     110.025 125.367 134.963  0.00  0.00    +0.000 OA
ATOM      5  C   UNL     1     111.812 125.858 136.114  0.00  0.00    +0.000 C 
ATOM      6  C   UNL     1     111.204 125.423 135.768  0.00  0.00    +0.000 C 
ATOM      7  C   UNL     1     111.852 126.674 136.000  0.00  0.00    +0.000 C 
ATOM      8  C   UNL     1     110.633 125.803 135.308  0.00  0.00    +0.000 C 
ATOM      9  C   UNL     1     110.673 126.619 135.194  0.00  0.00    +0.000 C 
ENDROOT
BRANCH   9  10
ATOM     10  O   UNL     1     110.103 127.000 134.735  0.00  0.00    +0.000 OA
BRANCH  10  11
ATOM     11  C   UNL     1     109.737 127.684 135.014  0.00  0.00    +0.000 A 
ATOM     12  C   UNL     1     109.176 127.635 135.618  0.00  0.00    +0.000 A 
ATOM     13  C   UNL     1     109.932 128.417 134.691  0.00  0.00    +0.000 A 
ATOM     14  C   UNL     1     108.810 128.319 135.897  0.00  0.00    +0.000 A 
ATOM     15  C   UNL     1     109.566 129.102 134.971  0.00  0.00    +0.000 A 
ATOM     16  C   UNL     1     109.005 129.053 135.573  0.00  0.00    +0.000 A 
BRANCH  16  17
ATOM     17  C   UNL     1     108.640 129.738 135.853  0.00  0.00    +0.000 C 
ATOM     18  C   UNL     1     109.043 130.240 136.369  0.00  0.00    +0.000 C 
BRANCH  18  20
ATOM     19  O   UNL     1     107.873 131.049 136.508  0.00  0.00    +0.000 OA
ATOM     20  C   UNL     1     108.677 130.924 136.648  0.00  0.00    +0.000 C 
BRANCH  20  23
ATOM     21  O   UNL     1     108.362 131.185 138.247  0.00  0.00    +0.000 OA
ATOM     22  O   UNL     1     110.423 133.163 138.331  0.00  0.00    +0.000 OA
ATOM     23  C   UNL     1     109.114 131.484 137.068  0.00  0.00    +0.000 A 
ATOM     24  C   UNL     1     108.956 131.614 137.868  0.00  0.00    +0.000 A 
ATOM     25  C   UNL     1     109.708 131.913 136.690  0.00  0.00    +0.000 A 
ATOM     26  C   UNL     1     109.393 132.174 138.288  0.00  0.00    +0.000 A 
ATOM     27  C   UNL     1     110.144 132.473 137.111  0.00  0.00    +0.000 A 
ATOM     28  C   UNL     1     109.987 132.603 137.909  0.00  0.00    +0.000 A 
ENDBRANCH  20  23
ENDBRANCH  18  20
ENDBRANCH  16  17
ENDBRANCH  10  11
ENDBRANCH   9  10
BRANCH   7  29
ATOM     29  C   UNL     1     112.461 127.110 136.346  0.00  0.00    +0.000 C 
BRANCH  29  30
ATOM     30  O   UNL     1     112.318 127.876 136.619  0.00  0.00    +0.000 OA
BRANCH  30  32
ATOM     31  O   UNL     1     113.645 128.402 136.603  0.00  0.00    +0.000 OA
ATOM     32  C   UNL     1     112.921 128.303 136.984  0.00  0.00    +0.000 C 
BRANCH  32  33
ATOM     33  C   UNL     1     112.800 128.632 137.731  0.00  0.00    +0.000 C 
ATOM     34  C   UNL     1     112.365 129.328 137.810  0.00  0.00    +0.000 C 
BRANCH  34  36
ATOM     35  O   UNL     1     111.880 130.643 140.797  0.00  0.00    +0.000 OA
ATOM     36  C   UNL     1     112.244 129.657 138.557  0.00  0.00    +0.000 A 
ATOM     37  C   UNL     1     111.622 129.389 139.029  0.00  0.00    +0.000 A 
ATOM     38  C   UNL     1     112.743 130.253 138.831  0.00  0.00    +0.000 A 
ATOM     39  C   UNL     1     111.501 129.717 139.776  0.00  0.00    +0.000 A 
ATOM     40  C   UNL     1     112.622 130.581 139.578  0.00  0.00    +0.000 A 
ATOM     41  C   UNL     1     112.001 130.314 140.050  0.00  0.00    +0.000 A 
ENDBRANCH  34  36
ENDBRANCH  32  33
ENDBRANCH  30  32
ENDBRANCH  29  30
ENDBRANCH   7  29
TORSDOF 10
ENDMDL
MODEL 8
REMARK VINA RESULT:      -8.6      2.968      5.743
REMARK  Name = 45783227
REMARK  10 active torsions:
REMARK  status: ('A' for Active; 'I' for Inactive)
REMARK    1  A    between atoms: O_4  and  C_16
REMARK    2  A    between atoms: O_4  and  C_18
REMARK    3  A    between atoms: O_6  and  C_17
REMARK    4  A    between atoms: O_6  and  C_21
REMARK    5  A    between atoms: C_14  and  C_17
REMARK    6  A    between atoms: C_21  and  C_25
REMARK    7  A    between atoms: C_24  and  C_26
REMARK    8  A    between atoms: C_27  and  C_28
REMARK    9  A    between atoms: C_29  and  C_30
REMARK   10  A    between atoms: C_30  and  C_33
REMARK                            x       y       z     vdW  Elec       q    Type
REMARK                         _______ _______ _______ _____ _____    ______ ____
ROOT
ATOM      1  O   UNL     1     112.410 128.201 141.320  0.00  0.00    +0.000 OA
ATOM      2  O   UNL     1     110.697 127.254 142.287  0.00  0.00    +0.000 OA
ATOM      3  O   UNL     1     110.966 128.525 143.304  0.00  0.00    +0.000 OA
ATOM      4  O   UNL     1     112.197 129.580 142.999  0.00  0.00    +0.000 OA
ATOM      5  C   UNL     1     111.313 127.782 142.135  0.00  0.00    +0.000 C 
ATOM      6  C   UNL     1     111.447 128.417 142.643  0.00  0.00    +0.000 C 
ATOM      7  C   UNL     1     111.794 127.674 141.473  0.00  0.00    +0.000 C 
ATOM      8  C   UNL     1     112.063 128.945 142.491  0.00  0.00    +0.000 C 
ATOM      9  C   UNL     1     112.544 128.837 141.830  0.00  0.00    +0.000 C 
ENDROOT
BRANCH   9  10
ATOM     10  O   UNL     1     113.160 129.364 141.677  0.00  0.00    +0.000 OA
BRANCH  10  11
ATOM     11  C   UNL     1     113.324 129.595 140.902  0.00  0.00    +0.000 A 
ATOM     12  C   UNL     1     114.013 129.334 140.531  0.00  0.00    +0.000 A 
ATOM     13  C   UNL     1     112.798 130.085 140.498  0.00  0.00    +0.000 A 
ATOM     14  C   UNL     1     114.177 129.564 139.756  0.00  0.00    +0.000 A 
ATOM     15  C   UNL     1     112.962 130.316 139.723  0.00  0.00    +0.000 A 
ATOM     16  C   UNL     1     113.651 130.056 139.351  0.00  0.00    +0.000 A 
BRANCH  16  17
ATOM     17  C   UNL     1     113.814 130.286 138.576  0.00  0.00    +0.000 C 
ATOM     18  C   UNL     1     113.501 129.858 137.944  0.00  0.00    +0.000 C 
BRANCH  18  20
ATOM     19  O   UNL     1     114.194 130.705 137.025  0.00  0.00    +0.000 OA
ATOM     20  C   UNL     1     113.664 130.088 137.169  0.00  0.00    +0.000 C 
BRANCH  20  23
ATOM     21  O   UNL     1     114.580 129.341 136.018  0.00  0.00    +0.000 OA
ATOM     22  O   UNL     1     112.204 128.547 134.643  0.00  0.00    +0.000 OA
ATOM     23  C   UNL     1     113.299 129.703 136.538  0.00  0.00    +0.000 A 
ATOM     24  C   UNL     1     113.757 129.329 135.962  0.00  0.00    +0.000 A 
ATOM     25  C   UNL     1     112.476 129.692 136.482  0.00  0.00    +0.000 A 
ATOM     26  C   UNL     1     113.392 128.944 135.331  0.00  0.00    +0.000 A 
ATOM     27  C   UNL     1     112.111 129.306 135.850  0.00  0.00    +0.000 A 
ATOM     28  C   UNL     1     112.569 128.933 135.275  0.00  0.00    +0.000 A 
ENDBRANCH  20  23
ENDBRANCH  18  20
ENDBRANCH  16  17
ENDBRANCH  10  11
ENDBRANCH   9  10
BRANCH   7  29
ATOM     29  C   UNL     1     111.660 127.039 140.964  0.00  0.00    +0.000 C 
BRANCH  29  30
ATOM     30  O   UNL     1     112.121 126.949 140.286  0.00  0.00    +0.000 OA
BRANCH  30  32
ATOM     31  O   UNL     1     111.173 126.041 139.723  0.00  0.00    +0.000 OA
ATOM     32  C   UNL     1     111.928 126.371 139.731  0.00  0.00    +0.000 C 
BRANCH  32  33
ATOM     33  C   UNL     1     112.492 126.122 139.182  0.00  0.00    +0.000 C 
ATOM     34  C   UNL     1     112.424 126.343 138.390  0.00  0.00    +0.000 C 
BRANCH  34  36
ATOM     35  O   UNL     1     114.678 125.348 136.196  0.00  0.00    +0.000 OA
ATOM     36  C   UNL     1     112.987 126.094 137.842  0.00  0.00    +0.000 A 
ATOM     37  C   UNL     1     113.790 126.199 138.000  0.00  0.00    +0.000 A 
ATOM     38  C   UNL     1     112.748 125.742 137.136  0.00  0.00    +0.000 A 
ATOM     39  C   UNL     1     114.354 125.950 137.451  0.00  0.00    +0.000 A 
ATOM     40  C   UNL     1     113.311 125.493 136.587  0.00  0.00    +0.000 A 
ATOM     41  C   UNL     1     114.114 125.597 136.744  0.00  0.00    +0.000 A 
ENDBRANCH  34  36
ENDBRANCH  32  33
ENDBRANCH  30  32
ENDBRANCH  29  30
ENDBRANCH   7  29
TORSDOF 10
ENDMDL
MODEL 9
REMARK VINA RESULT:      -8.6      2.323      4.303
REMARK  Name = 45783227
REMARK  10 active torsions:
REMARK  status: ('A' for Active; 'I' for Inactive)
REMARK    1  A    between atoms: O_4  and  C_16
REMARK    2  A    between atoms: O_4  and  C_18
REMARK    3  A    between atoms: O_6  and  C_17
REMARK    4  A    between atoms: O_6  and  C_21
REMARK    5  A    between atoms: C_14  and  C_17
REMARK    6  A    between atoms: C_21  and  C_25
REMARK    7  A    between atoms: C_24  and  C_26
REMARK    8  A    between atoms: C_27  and  C_28
REMARK    9  A    between atoms: C_29  and  C_30
REMARK   10  A    between atoms: C_30  and  C_33
REMARK                            x       y       z     vdW  Elec       q    Type
REMARK                         _______ _______ _______ _____ _____    ______ ____
ROOT
ATOM      1  O   UNL     1     112.222 126.429 136.425  0.00  0.00    +0.000 OA
ATOM      2  O   UNL     1     110.680 126.692 134.902  0.00  0.00    +0.000 OA
ATOM      3  O   UNL     1     110.462 125.104 135.296  0.00  0.00    +0.000 OA
ATOM      4  O   UNL     1     111.418 124.400 136.442  0.00  0.00    +0.000 OA
ATOM      5  C   UNL     1     111.157 126.339 135.476  0.00  0.00    +0.000 C 
ATOM      6  C   UNL     1     111.049 125.546 135.672  0.00  0.00    +0.000 C 
ATOM      7  C   UNL     1     111.744 126.781 135.852  0.00  0.00    +0.000 C 
ATOM      8  C   UNL     1     111.526 125.193 136.245  0.00  0.00    +0.000 C 
ATOM      9  C   UNL     1     112.113 125.635 136.621  0.00  0.00    +0.000 C 
ENDROOT
BRANCH   9  10
ATOM     10  O   UNL     1     112.591 125.283 137.194  0.00  0.00    +0.000 OA
BRANCH  10  11
ATOM     11  C   UNL     1     112.727 125.668 137.911  0.00  0.00    +0.000 A 
ATOM     12  C   UNL     1     113.491 125.908 138.111  0.00  0.00    +0.000 A 
ATOM     13  C   UNL     1     112.101 125.812 138.427  0.00  0.00    +0.000 A 
ATOM     14  C   UNL     1     113.628 126.292 138.828  0.00  0.00    +0.000 A 
ATOM     15  C   UNL     1     112.237 126.197 139.144  0.00  0.00    +0.000 A 
ATOM     16  C   UNL     1     113.000 126.437 139.345  0.00  0.00    +0.000 A 
BRANCH  16  17
ATOM     17  C   UNL     1     113.137 126.822 140.062  0.00  0.00    +0.000 C 
ATOM     18  C   UNL     1     113.288 127.633 140.072  0.00  0.00    +0.000 C 
BRANCH  18  20
ATOM     19  O   UNL     1     113.351 127.605 141.500  0.00  0.00    +0.000 OA
ATOM     20  C   UNL     1     113.424 128.018 140.789  0.00  0.00    +0.000 C 
BRANCH  20  23
ATOM     21  O   UNL     1     112.511 129.102 141.634  0.00  0.00    +0.000 OA
ATOM     22  O   UNL     1     114.260 131.211 140.819  0.00  0.00    +0.000 OA
ATOM     23  C   UNL     1     113.634 128.816 140.796  0.00  0.00    +0.000 A 
ATOM     24  C   UNL     1     113.176 129.358 141.219  0.00  0.00    +0.000 A 
ATOM     25  C   UNL     1     114.299 129.072 140.381  0.00  0.00    +0.000 A 
ATOM     26  C   UNL     1     113.386 130.156 141.226  0.00  0.00    +0.000 A 
ATOM     27  C   UNL     1     114.507 129.871 140.389  0.00  0.00    +0.000 A 
ATOM     28  C   UNL     1     114.051 130.412 140.811  0.00  0.00    +0.000 A 
ENDBRANCH  20  23
ENDBRANCH  18  20
ENDBRANCH  16  17
ENDBRANCH  10  11
ENDBRANCH   9  10
BRANCH   7  29
ATOM     29  C   UNL     1     111.853 127.575 135.655  0.00  0.00    +0.000 C 
BRANCH  29  30
ATOM     30  O   UNL     1     112.216 128.087 136.191  0.00  0.00    +0.000 OA
BRANCH  30  32
ATOM     31  O   UNL     1     112.609 129.220 135.416  0.00  0.00    +0.000 OA
ATOM     32  C   UNL     1     112.202 128.900 136.058  0.00  0.00    +0.000 C 
BRANCH  32  33
ATOM     33  C   UNL     1     111.781 129.394 136.567  0.00  0.00    +0.000 C 
ATOM     34  C   UNL     1     112.133 129.668 137.261  0.00  0.00    +0.000 C 
BRANCH  34  36
ATOM     35  O   UNL     1     110.449 131.643 139.299  0.00  0.00    +0.000 OA
ATOM     36  C   UNL     1     111.712 130.162 137.770  0.00  0.00    +0.000 A 
ATOM     37  C   UNL     1     111.886 130.968 137.801  0.00  0.00    +0.000 A 
ATOM     38  C   UNL     1     111.118 129.850 138.249  0.00  0.00    +0.000 A 
ATOM     39  C   UNL     1     111.465 131.462 138.310  0.00  0.00    +0.000 A 
ATOM     40  C   UNL     1     110.697 130.343 138.758  0.00  0.00    +0.000 A 
ATOM     41  C   UNL     1     110.870 131.149 138.789  0.00  0.00    +0.000 A 
ENDBRANCH  34  36
ENDBRANCH  32  33
ENDBRANCH  30  32
ENDBRANCH  29  30
ENDBRANCH   7  29
TORSDOF 10
ENDMDL
MODEL 10
REMARK VINA RESULT:      -8.6      2.008      5.732
REMARK  Name = 45783227
REMARK  10 active torsions:
REMARK  status: ('A' for Active; 'I' for Inactive)
REMARK    1  A    between atoms: O_4  and  C_16
REMARK    2  A    between atoms: O_4  and  C_18
REMARK    3  A    between atoms: O_6  and  C_17
REMARK    4  A    between atoms: O_6  and  C_21
REMARK    5  A    between atoms: C_14  and  C_17
REMARK    6  A    between atoms: C_21  and  C_25
REMARK    7  A    between atoms: C_24  and  C_26
REMARK    8  A    between atoms: C_27  and  C_28
REMARK    9  A    between atoms: C_29  and  C_30
REMARK   10  A    between atoms: C_30  and  C_33
REMARK                            x       y       z     vdW  Elec       q    Type
REMARK                         _______ _______ _______ _____ _____    ______ ____
ROOT
ATOM      1  O   UNL     1     110.294 128.015 136.014  0.00  0.00    +0.000 OA
ATOM      2  O   UNL     1     108.430 127.014 135.475  0.00  0.00    +0.000 OA
ATOM      3  O   UNL     1     107.888 128.543 135.774  0.00  0.00    +0.000 OA
ATOM      4  O   UNL     1     108.949 129.720 136.233  0.00  0.00    +0.000 OA
ATOM      5  C   UNL     1     108.961 127.603 135.704  0.00  0.00    +0.000 C 
ATOM      6  C   UNL     1     108.690 128.367 135.854  0.00  0.00    +0.000 C 
ATOM      7  C   UNL     1     109.763 127.427 135.784  0.00  0.00    +0.000 C 
ATOM      8  C   UNL     1     109.220 128.956 136.084  0.00  0.00    +0.000 C 
ATOM      9  C   UNL     1     110.022 128.780 136.164  0.00  0.00    +0.000 C 
ENDROOT
BRANCH   9  10
ATOM     10  O   UNL     1     110.553 129.368 136.393  0.00  0.00    +0.000 OA
BRANCH  10  11
ATOM     11  C   UNL     1     111.121 129.209 136.970  0.00  0.00    +0.000 A 
ATOM     12  C   UNL     1     111.916 129.145 136.759  0.00  0.00    +0.000 A 
ATOM     13  C   UNL     1     110.894 129.114 137.757  0.00  0.00    +0.000 A 
ATOM     14  C   UNL     1     112.484 128.987 137.336  0.00  0.00    +0.000 A 
ATOM     15  C   UNL     1     111.462 128.955 138.334  0.00  0.00    +0.000 A 
ATOM     16  C   UNL     1     112.257 128.891 138.124  0.00  0.00    +0.000 A 
BRANCH  16  17
ATOM     17  C   UNL     1     112.825 128.733 138.701  0.00  0.00    +0.000 C 
ATOM     18  C   UNL     1     113.038 129.319 139.242  0.00  0.00    +0.000 C 
BRANCH  18  20
ATOM     19  O   UNL     1     113.806 128.379 139.997  0.00  0.00    +0.000 OA
ATOM     20  C   UNL     1     113.606 129.160 139.818  0.00  0.00    +0.000 C 
BRANCH  20  23
ATOM     21  O   UNL     1     113.125 129.559 141.345  0.00  0.00    +0.000 OA
ATOM     22  O   UNL     1     115.078 131.644 141.416  0.00  0.00    +0.000 OA
ATOM     23  C   UNL     1     113.974 129.781 140.217  0.00  0.00    +0.000 A 
ATOM     24  C   UNL     1     113.734 129.980 140.981  0.00  0.00    +0.000 A 
ATOM     25  C   UNL     1     114.583 130.202 139.853  0.00  0.00    +0.000 A 
ATOM     26  C   UNL     1     114.102 130.601 141.380  0.00  0.00    +0.000 A 
ATOM     27  C   UNL     1     114.951 130.823 140.253  0.00  0.00    +0.000 A 
ATOM     28  C   UNL     1     114.711 131.023 141.016  0.00  0.00    +0.000 A 
ENDBRANCH  20  23
ENDBRANCH  18  20
ENDBRANCH  16  17
ENDBRANCH  10  11
ENDBRANCH   9  10
BRANCH   7  29
ATOM     29  C   UNL     1     110.034 126.661 135.635  0.00  0.00    +0.000 C 
BRANCH  29  30
ATOM     30  O   UNL     1     110.469 126.258 136.208  0.00  0.00    +0.000 OA
BRANCH  30  32
ATOM     31  O   UNL     1     110.598 124.989 135.568  0.00  0.00    +0.000 OA
ATOM     32  C   UNL     1     110.931 125.610 135.995  0.00  0.00    +0.000 C 
BRANCH  32  33
ATOM     33  C   UNL     1     111.728 125.582 136.209  0.00  0.00    +0.000 C 
ATOM     34  C   UNL     1     111.993 125.012 136.742  0.00  0.00    +0.000 C 
BRANCH  34  36
ATOM     35  O   UNL     1     115.178 124.902 137.598  0.00  0.00    +0.000 OA
ATOM     36  C   UNL     1     112.789 124.984 136.956  0.00  0.00    +0.000 A 
ATOM     37  C   UNL     1     113.047 125.376 137.635  0.00  0.00    +0.000 A 
ATOM     38  C   UNL     1     113.326 124.566 136.491  0.00  0.00    +0.000 A 
ATOM     39  C   UNL     1     113.843 125.349 137.849  0.00  0.00    +0.000 A 
ATOM     40  C   UNL     1     114.123 124.538 136.705  0.00  0.00    +0.000 A 
ATOM     41  C   UNL     1     114.382 124.930 137.384  0.00  0.00    +0.000 A 
ENDBRANCH  34  36
ENDBRANCH  32  33
ENDBRANCH  30  32
ENDBRANCH  29  30
ENDBRANCH   7  29
TORSDOF 10
ENDMDL
