MODEL 1
REMARK VINA RESULT:      -7.9      0.000      0.000
REMARK  Name = 14544211
REMARK  2 active torsions:
REMARK  status: ('A' for Active; 'I' for Inactive)
REMARK    1  A    between atoms: O_2  and  C_15
REMARK    2  A    between atoms: C_5  and  C_9
REMARK                            x       y       z     vdW  Elec       q    Type
REMARK                         _______ _______ _______ _____ _____    ______ ____
ROOT
ATOM      1  O   UNL     1     111.080 124.566 136.044  0.00  0.00    +0.000 OA
ATOM      2  O   UNL     1     109.117 126.115 134.613  0.00  0.00    +0.000 OA
ATOM      3  C   UNL     1     112.354 125.203 136.464  0.00  0.00    +0.000 C 
ATOM      4  C   UNL     1     112.091 125.939 136.109  0.00  0.00    +0.000 C 
ATOM      5  C   UNL     1     111.844 124.511 136.431  0.00  0.00    +0.000 C 
ATOM      6  C   UNL     1     111.323 125.976 135.725  0.00  0.00    +0.000 A 
ATOM      7  C   UNL     1     110.834 125.312 135.694  0.00  0.00    +0.000 A 
ATOM      8  C   UNL     1     111.077 126.686 135.386  0.00  0.00    +0.000 A 
ATOM      9  C   UNL     1     110.099 125.358 135.323  0.00  0.00    +0.000 A 
ATOM     10  C   UNL     1     110.340 126.733 135.015  0.00  0.00    +0.000 A 
ATOM     11  C   UNL     1     109.852 126.069 134.984  0.00  0.00    +0.000 A 
ENDROOT
BRANCH   3  13
ATOM     12  O   UNL     1     115.299 125.028 137.944  0.00  0.00    +0.000 OA
ATOM     13  C   UNL     1     113.090 125.160 136.834  0.00  0.00    +0.000 A 
ATOM     14  C   UNL     1     113.710 124.751 136.473  0.00  0.00    +0.000 A 
ATOM     15  C   UNL     1     113.207 125.524 137.565  0.00  0.00    +0.000 A 
ATOM     16  C   UNL     1     114.446 124.708 136.843  0.00  0.00    +0.000 A 
ATOM     17  C   UNL     1     113.942 125.480 137.935  0.00  0.00    +0.000 A 
ATOM     18  C   UNL     1     114.562 125.072 137.574  0.00  0.00    +0.000 A 
ENDBRANCH   3  13
BRANCH  10  19
ATOM     19  O   UNL     1     110.094 127.443 134.676  0.00  0.00    +0.000 OA
ATOM     20  C   UNL     1     110.593 128.100 134.686  0.00  0.00    +0.000 C 
ENDBRANCH  10  19
TORSDOF 2
ENDMDL
MODEL 2
REMARK VINA RESULT:      -7.9     12.721     13.726
REMARK  Name = 14544211
REMARK  2 active torsions:
REMARK  status: ('A' for Active; 'I' for Inactive)
REMARK    1  A    between atoms: O_2  and  C_15
REMARK    2  A    between atoms: C_5  and  C_9
REMARK                            x       y       z     vdW  Elec       q    Type
REMARK                         _______ _______ _______ _____ _____    ______ ____
ROOT
ATOM      1  O   UNL     1     106.016 125.329 146.252  0.00  0.00    +0.000 OA
ATOM      2  O   UNL     1     108.531 125.393 147.657  0.00  0.00    +0.000 OA
ATOM      3  C   UNL     1     104.826 124.725 146.903  0.00  0.00    +0.000 C 
ATOM      4  C   UNL     1     105.305 124.552 147.595  0.00  0.00    +0.000 C 
ATOM      5  C   UNL     1     105.184 125.117 146.227  0.00  0.00    +0.000 C 
ATOM      6  C   UNL     1     106.136 124.773 147.602  0.00  0.00    +0.000 A 
ATOM      7  C   UNL     1     106.480 125.148 146.953  0.00  0.00    +0.000 A 
ATOM      8  C   UNL     1     106.590 124.604 148.269  0.00  0.00    +0.000 A 
ATOM      9  C   UNL     1     107.277 125.355 146.971  0.00  0.00    +0.000 A 
ATOM     10  C   UNL     1     107.389 124.811 148.288  0.00  0.00    +0.000 A 
ATOM     11  C   UNL     1     107.733 125.186 147.638  0.00  0.00    +0.000 A 
ENDROOT
BRANCH   3  13
ATOM     12  O   UNL     1     101.633 123.893 146.840  0.00  0.00    +0.000 OA
ATOM     13  C   UNL     1     104.028 124.517 146.888  0.00  0.00    +0.000 A 
ATOM     14  C   UNL     1     103.784 123.846 146.475  0.00  0.00    +0.000 A 
ATOM     15  C   UNL     1     103.473 124.981 147.285  0.00  0.00    +0.000 A 
ATOM     16  C   UNL     1     102.986 123.638 146.459  0.00  0.00    +0.000 A 
ATOM     17  C   UNL     1     102.675 124.773 147.270  0.00  0.00    +0.000 A 
ATOM     18  C   UNL     1     102.431 124.102 146.857  0.00  0.00    +0.000 A 
ENDBRANCH   3  13
BRANCH  10  19
ATOM     19  O   UNL     1     107.843 124.642 148.955  0.00  0.00    +0.000 OA
ATOM     20  C   UNL     1     107.495 124.284 149.612  0.00  0.00    +0.000 C 
ENDBRANCH  10  19
TORSDOF 2
ENDMDL
MODEL 3
REMARK VINA RESULT:      -7.8     12.981     13.448
REMARK  Name = 14544211
REMARK  2 active torsions:
REMARK  status: ('A' for Active; 'I' for Inactive)
REMARK    1  A    between atoms: O_2  and  C_15
REMARK    2  A    between atoms: C_5  and  C_9
REMARK                            x       y       z     vdW  Elec       q    Type
REMARK                         _______ _______ _______ _____ _____    ______ ____
ROOT
ATOM      1  O   UNL     1     104.000 125.101 148.205  0.00  0.00    +0.000 OA
ATOM      2  O   UNL     1     101.921 124.259 146.397  0.00  0.00    +0.000 OA
ATOM      3  C   UNL     1     105.407 124.703 147.942  0.00  0.00    +0.000 C 
ATOM      4  C   UNL     1     105.147 124.286 147.238  0.00  0.00    +0.000 C 
ATOM      5  C   UNL     1     104.829 125.113 148.429  0.00  0.00    +0.000 C 
ATOM      6  C   UNL     1     104.313 124.284 147.029  0.00  0.00    +0.000 A 
ATOM      7  C   UNL     1     103.759 124.678 147.496  0.00  0.00    +0.000 A 
ATOM      8  C   UNL     1     104.070 123.882 146.351  0.00  0.00    +0.000 A 
ATOM      9  C   UNL     1     102.962 124.669 147.286  0.00  0.00    +0.000 A 
ATOM     10  C   UNL     1     103.272 123.873 146.140  0.00  0.00    +0.000 A 
ATOM     11  C   UNL     1     102.718 124.267 146.608  0.00  0.00    +0.000 A 
ENDROOT
BRANCH   3  13
ATOM     12  O   UNL     1     108.600 124.730 148.774  0.00  0.00    +0.000 OA
ATOM     13  C   UNL     1     106.205 124.709 148.150  0.00  0.00    +0.000 A 
ATOM     14  C   UNL     1     106.755 125.087 147.665  0.00  0.00    +0.000 A 
ATOM     15  C   UNL     1     106.454 124.338 148.844  0.00  0.00    +0.000 A 
ATOM     16  C   UNL     1     107.553 125.094 147.873  0.00  0.00    +0.000 A 
ATOM     17  C   UNL     1     107.252 124.345 149.052  0.00  0.00    +0.000 A 
ATOM     18  C   UNL     1     107.802 124.723 148.567  0.00  0.00    +0.000 A 
ENDBRANCH   3  13
BRANCH  10  19
ATOM     19  O   UNL     1     103.029 123.471 145.463  0.00  0.00    +0.000 OA
ATOM     20  C   UNL     1     103.443 122.804 145.208  0.00  0.00    +0.000 C 
ENDBRANCH  10  19
TORSDOF 2
ENDMDL
MODEL 4
REMARK VINA RESULT:      -7.7     10.769     12.337
REMARK  Name = 14544211
REMARK  2 active torsions:
REMARK  status: ('A' for Active; 'I' for Inactive)
REMARK    1  A    between atoms: O_2  and  C_15
REMARK    2  A    between atoms: C_5  and  C_9
REMARK                            x       y       z     vdW  Elec       q    Type
REMARK                         _______ _______ _______ _____ _____    ______ ____
ROOT
ATOM      1  O   UNL     1     102.741 129.620 140.581  0.00  0.00    +0.000 OA
ATOM      2  O   UNL     1     104.679 127.645 141.384  0.00  0.00    +0.000 OA
ATOM      3  C   UNL     1     102.411 130.741 141.499  0.00  0.00    +0.000 C 
ATOM      4  C   UNL     1     102.969 130.424 142.070  0.00  0.00    +0.000 C 
ATOM      5  C   UNL     1     102.297 130.336 140.749  0.00  0.00    +0.000 C 
ATOM      6  C   UNL     1     103.406 129.707 141.884  0.00  0.00    +0.000 A 
ATOM      7  C   UNL     1     103.296 129.319 141.165  0.00  0.00    +0.000 A 
ATOM      8  C   UNL     1     103.940 129.409 142.437  0.00  0.00    +0.000 A 
ATOM      9  C   UNL     1     103.720 128.632 140.998  0.00  0.00    +0.000 A 
ATOM     10  C   UNL     1     104.365 128.721 142.270  0.00  0.00    +0.000 A 
ATOM     11  C   UNL     1     104.255 128.332 141.551  0.00  0.00    +0.000 A 
ENDROOT
BRANCH   3  13
ATOM     12  O   UNL     1     100.717 133.491 142.178  0.00  0.00    +0.000 OA
ATOM     13  C   UNL     1     101.988 131.428 141.669  0.00  0.00    +0.000 A 
ATOM     14  C   UNL     1     101.213 131.377 141.947  0.00  0.00    +0.000 A 
ATOM     15  C   UNL     1     102.340 132.166 141.560  0.00  0.00    +0.000 A 
ATOM     16  C   UNL     1     100.790 132.065 142.116  0.00  0.00    +0.000 A 
ATOM     17  C   UNL     1     101.917 132.854 141.729  0.00  0.00    +0.000 A 
ATOM     18  C   UNL     1     101.142 132.803 142.008  0.00  0.00    +0.000 A 
ENDBRANCH   3  13
BRANCH  10  19
ATOM     19  O   UNL     1     104.900 128.422 142.823  0.00  0.00    +0.000 OA
ATOM     20  C   UNL     1     105.010 128.811 143.542  0.00  0.00    +0.000 C 
ENDBRANCH  10  19
TORSDOF 2
ENDMDL
MODEL 5
REMARK VINA RESULT:      -7.7      7.733      9.000
REMARK  Name = 14544211
REMARK  2 active torsions:
REMARK  status: ('A' for Active; 'I' for Inactive)
REMARK    1  A    between atoms: O_2  and  C_15
REMARK    2  A    between atoms: C_5  and  C_9
REMARK                            x       y       z     vdW  Elec       q    Type
REMARK                         _______ _______ _______ _____ _____    ______ ____
ROOT
ATOM      1  O   UNL     1     105.806 123.231 140.078  0.00  0.00    +0.000 OA
ATOM      2  O   UNL     1     107.277 124.894 141.914  0.00  0.00    +0.000 OA
ATOM      3  C   UNL     1     104.642 123.795 139.348  0.00  0.00    +0.000 C 
ATOM      4  C   UNL     1     104.771 124.546 139.743  0.00  0.00    +0.000 C 
ATOM      5  C   UNL     1     105.163 123.133 139.517  0.00  0.00    +0.000 C 
ATOM      6  C   UNL     1     105.420 124.627 140.301  0.00  0.00    +0.000 A 
ATOM      7  C   UNL     1     105.920 123.991 140.463  0.00  0.00    +0.000 A 
ATOM      8  C   UNL     1     105.538 125.352 140.677  0.00  0.00    +0.000 A 
ATOM      9  C   UNL     1     106.539 124.081 141.000  0.00  0.00    +0.000 A 
ATOM     10  C   UNL     1     106.158 125.441 141.215  0.00  0.00    +0.000 A 
ATOM     11  C   UNL     1     106.658 124.805 141.377  0.00  0.00    +0.000 A 
ENDROOT
BRANCH   3  13
ATOM     12  O   UNL     1     102.162 123.450 137.198  0.00  0.00    +0.000 OA
ATOM     13  C   UNL     1     104.022 123.709 138.811  0.00  0.00    +0.000 A 
ATOM     14  C   UNL     1     104.183 123.613 138.007  0.00  0.00    +0.000 A 
ATOM     15  C   UNL     1     103.241 123.718 139.077  0.00  0.00    +0.000 A 
ATOM     16  C   UNL     1     103.563 123.527 137.470  0.00  0.00    +0.000 A 
ATOM     17  C   UNL     1     102.621 123.631 138.540  0.00  0.00    +0.000 A 
ATOM     18  C   UNL     1     102.782 123.536 137.736  0.00  0.00    +0.000 A 
ENDBRANCH   3  13
BRANCH  10  19
ATOM     19  O   UNL     1     106.276 126.166 141.591  0.00  0.00    +0.000 OA
ATOM     20  C   UNL     1     105.629 126.639 141.788  0.00  0.00    +0.000 C 
ENDBRANCH  10  19
TORSDOF 2
ENDMDL
MODEL 6
REMARK VINA RESULT:      -7.5      1.593      2.061
REMARK  Name = 14544211
REMARK  2 active torsions:
REMARK  status: ('A' for Active; 'I' for Inactive)
REMARK    1  A    between atoms: O_2  and  C_15
REMARK    2  A    between atoms: C_5  and  C_9
REMARK                            x       y       z     vdW  Elec       q    Type
REMARK                         _______ _______ _______ _____ _____    ______ ____
ROOT
ATOM      1  O   UNL     1     109.834 125.825 135.255  0.00  0.00    +0.000 OA
ATOM      2  O   UNL     1     108.143 128.107 135.737  0.00  0.00    +0.000 OA
ATOM      3  C   UNL     1     110.993 125.568 136.149  0.00  0.00    +0.000 C 
ATOM      4  C   UNL     1     110.786 126.267 136.602  0.00  0.00    +0.000 C 
ATOM      5  C   UNL     1     110.514 125.346 135.471  0.00  0.00    +0.000 C 
ATOM      6  C   UNL     1     110.102 126.736 136.372  0.00  0.00    +0.000 A 
ATOM      7  C   UNL     1     109.643 126.522 135.721  0.00  0.00    +0.000 A 
ATOM      8  C   UNL     1     109.909 127.406 136.811  0.00  0.00    +0.000 A 
ATOM      9  C   UNL     1     108.990 126.979 135.510  0.00  0.00    +0.000 A 
ATOM     10  C   UNL     1     109.255 127.864 136.600  0.00  0.00    +0.000 A 
ATOM     11  C   UNL     1     108.796 127.650 135.949  0.00  0.00    +0.000 A 
ENDROOT
BRANCH   3  13
ATOM     12  O   UNL     1     113.609 123.747 137.004  0.00  0.00    +0.000 OA
ATOM     13  C   UNL     1     111.647 125.113 136.363  0.00  0.00    +0.000 A 
ATOM     14  C   UNL     1     112.409 125.406 136.246  0.00  0.00    +0.000 A 
ATOM     15  C   UNL     1     111.538 124.365 136.693  0.00  0.00    +0.000 A 
ATOM     16  C   UNL     1     113.063 124.950 136.460  0.00  0.00    +0.000 A 
ATOM     17  C   UNL     1     112.192 123.909 136.907  0.00  0.00    +0.000 A 
ATOM     18  C   UNL     1     112.954 124.202 136.790  0.00  0.00    +0.000 A 
ENDBRANCH   3  13
BRANCH  10  19
ATOM     19  O   UNL     1     109.062 128.535 137.039  0.00  0.00    +0.000 OA
ATOM     20  C   UNL     1     109.632 128.896 137.513  0.00  0.00    +0.000 C 
ENDBRANCH  10  19
TORSDOF 2
ENDMDL
MODEL 7
REMARK VINA RESULT:      -7.5     12.572     13.433
REMARK  Name = 14544211
REMARK  2 active torsions:
REMARK  status: ('A' for Active; 'I' for Inactive)
REMARK    1  A    between atoms: O_2  and  C_15
REMARK    2  A    between atoms: C_5  and  C_9
REMARK                            x       y       z     vdW  Elec       q    Type
REMARK                         _______ _______ _______ _____ _____    ______ ____
ROOT
ATOM      1  O   UNL     1     105.047 124.411 147.694  0.00  0.00    +0.000 OA
ATOM      2  O   UNL     1     107.459 125.557 146.612  0.00  0.00    +0.000 OA
ATOM      3  C   UNL     1     103.856 124.247 146.821  0.00  0.00    +0.000 C 
ATOM      4  C   UNL     1     104.300 124.587 146.170  0.00  0.00    +0.000 C 
ATOM      5  C   UNL     1     104.233 124.158 147.589  0.00  0.00    +0.000 C 
ATOM      6  C   UNL     1     105.114 124.834 146.293  0.00  0.00    +0.000 A 
ATOM      7  C   UNL     1     105.475 124.749 147.030  0.00  0.00    +0.000 A 
ATOM      8  C   UNL     1     105.534 125.160 145.662  0.00  0.00    +0.000 A 
ATOM      9  C   UNL     1     106.256 124.990 147.136  0.00  0.00    +0.000 A 
ATOM     10  C   UNL     1     106.317 125.401 145.769  0.00  0.00    +0.000 A 
ATOM     11  C   UNL     1     106.678 125.316 146.506  0.00  0.00    +0.000 A 
ENDROOT
BRANCH   3  13
ATOM     12  O   UNL     1     100.729 123.288 146.385  0.00  0.00    +0.000 OA
ATOM     13  C   UNL     1     103.075 124.007 146.712  0.00  0.00    +0.000 A 
ATOM     14  C   UNL     1     102.456 124.479 146.987  0.00  0.00    +0.000 A 
ATOM     15  C   UNL     1     102.911 123.296 146.327  0.00  0.00    +0.000 A 
ATOM     16  C   UNL     1     101.674 124.239 146.878  0.00  0.00    +0.000 A 
ATOM     17  C   UNL     1     102.130 123.056 146.218  0.00  0.00    +0.000 A 
ATOM     18  C   UNL     1     101.511 123.527 146.493  0.00  0.00    +0.000 A 
ENDBRANCH   3  13
BRANCH  10  19
ATOM     19  O   UNL     1     106.737 125.727 145.138  0.00  0.00    +0.000 OA
ATOM     20  C   UNL     1     106.335 126.114 144.530  0.00  0.00    +0.000 C 
ENDBRANCH  10  19
TORSDOF 2
ENDMDL
MODEL 8
REMARK VINA RESULT:      -7.5     11.620     12.997
REMARK  Name = 14544211
REMARK  2 active torsions:
REMARK  status: ('A' for Active; 'I' for Inactive)
REMARK    1  A    between atoms: O_2  and  C_15
REMARK    2  A    between atoms: C_5  and  C_9
REMARK                            x       y       z     vdW  Elec       q    Type
REMARK                         _______ _______ _______ _____ _____    ______ ____
ROOT
ATOM      1  O   UNL     1     100.887 131.925 142.076  0.00  0.00    +0.000 OA
ATOM      2  O   UNL     1     100.802 134.805 142.138  0.00  0.00    +0.000 OA
ATOM      3  C   UNL     1     102.079 131.238 141.518  0.00  0.00    +0.000 C 
ATOM      4  C   UNL     1     102.434 132.003 141.360  0.00  0.00    +0.000 C 
ATOM      5  C   UNL     1     101.300 131.198 141.879  0.00  0.00    +0.000 C 
ATOM      6  C   UNL     1     102.006 132.720 141.564  0.00  0.00    +0.000 A 
ATOM      7  C   UNL     1     101.258 132.683 141.910  0.00  0.00    +0.000 A 
ATOM      8  C   UNL     1     102.353 133.452 141.409  0.00  0.00    +0.000 A 
ATOM      9  C   UNL     1     100.857 133.377 142.101  0.00  0.00    +0.000 A 
ATOM     10  C   UNL     1     101.951 134.148 141.600  0.00  0.00    +0.000 A 
ATOM     11  C   UNL     1     101.203 134.110 141.946  0.00  0.00    +0.000 A 
ENDROOT
BRANCH   3  13
ATOM     12  O   UNL     1     103.693 128.464 140.748  0.00  0.00    +0.000 OA
ATOM     13  C   UNL     1     102.483 130.544 141.326  0.00  0.00    +0.000 A 
ATOM     14  C   UNL     1     102.297 130.138 140.632  0.00  0.00    +0.000 A 
ATOM     15  C   UNL     1     103.072 130.257 141.827  0.00  0.00    +0.000 A 
ATOM     16  C   UNL     1     102.701 129.445 140.440  0.00  0.00    +0.000 A 
ATOM     17  C   UNL     1     103.476 129.564 141.634  0.00  0.00    +0.000 A 
ATOM     18  C   UNL     1     103.290 129.158 140.941  0.00  0.00    +0.000 A 
ENDBRANCH   3  13
BRANCH  10  19
ATOM     19  O   UNL     1     102.298 134.880 141.445  0.00  0.00    +0.000 OA
ATOM     20  C   UNL     1     102.917 134.937 140.903  0.00  0.00    +0.000 C 
ENDBRANCH  10  19
TORSDOF 2
ENDMDL
MODEL 9
REMARK VINA RESULT:      -7.3      1.009      4.200
REMARK  Name = 14544211
REMARK  2 active torsions:
REMARK  status: ('A' for Active; 'I' for Inactive)
REMARK    1  A    between atoms: O_2  and  C_15
REMARK    2  A    between atoms: C_5  and  C_9
REMARK                            x       y       z     vdW  Elec       q    Type
REMARK                         _______ _______ _______ _____ _____    ______ ____
ROOT
ATOM      1  O   UNL     1     110.873 124.650 135.740  0.00  0.00    +0.000 OA
ATOM      2  O   UNL     1     113.005 123.277 137.108  0.00  0.00    +0.000 OA
ATOM      3  C   UNL     1     110.860 126.135 135.704  0.00  0.00    +0.000 C 
ATOM      4  C   UNL     1     111.587 126.142 136.161  0.00  0.00    +0.000 C 
ATOM      5  C   UNL     1     110.501 125.383 135.492  0.00  0.00    +0.000 C 
ATOM      6  C   UNL     1     111.946 125.398 136.401  0.00  0.00    +0.000 A 
ATOM      7  C   UNL     1     111.601 124.677 136.198  0.00  0.00    +0.000 A 
ATOM      8  C   UNL     1     112.644 125.413 136.840  0.00  0.00    +0.000 A 
ATOM      9  C   UNL     1     111.954 123.971 136.433  0.00  0.00    +0.000 A 
ATOM     10  C   UNL     1     112.997 124.705 137.076  0.00  0.00    +0.000 A 
ATOM     11  C   UNL     1     112.652 123.984 136.872  0.00  0.00    +0.000 A 
ENDROOT
BRANCH   3  13
ATOM     12  O   UNL     1     109.455 128.971 134.767  0.00  0.00    +0.000 OA
ATOM     13  C   UNL     1     110.509 126.844 135.470  0.00  0.00    +0.000 A 
ATOM     14  C   UNL     1     109.835 127.118 135.858  0.00  0.00    +0.000 A 
ATOM     15  C   UNL     1     110.833 127.278 134.848  0.00  0.00    +0.000 A 
ATOM     16  C   UNL     1     109.484 127.827 135.623  0.00  0.00    +0.000 A 
ATOM     17  C   UNL     1     110.482 127.987 134.613  0.00  0.00    +0.000 A 
ATOM     18  C   UNL     1     109.807 128.261 135.001  0.00  0.00    +0.000 A 
ENDBRANCH   3  13
BRANCH  10  19
ATOM     19  O   UNL     1     113.695 124.719 137.515  0.00  0.00    +0.000 OA
ATOM     20  C   UNL     1     114.221 125.350 137.435  0.00  0.00    +0.000 C 
ENDBRANCH  10  19
TORSDOF 2
ENDMDL
MODEL 10
REMARK VINA RESULT:      -7.3      2.952      4.203
REMARK  Name = 14544211
REMARK  2 active torsions:
REMARK  status: ('A' for Active; 'I' for Inactive)
REMARK    1  A    between atoms: O_2  and  C_15
REMARK    2  A    between atoms: C_5  and  C_9
REMARK                            x       y       z     vdW  Elec       q    Type
REMARK                         _______ _______ _______ _____ _____    ______ ____
ROOT
ATOM      1  O   UNL     1     112.205 127.315 136.028  0.00  0.00    +0.000 OA
ATOM      2  O   UNL     1     112.252 124.551 136.841  0.00  0.00    +0.000 OA
ATOM      3  C   UNL     1     113.454 128.116 136.080  0.00  0.00    +0.000 C 
ATOM      4  C   UNL     1     113.873 127.427 136.375  0.00  0.00    +0.000 C 
ATOM      5  C   UNL     1     112.614 128.060 135.905  0.00  0.00    +0.000 C 
ATOM      6  C   UNL     1     113.447 126.690 136.492  0.00  0.00    +0.000 A 
ATOM      7  C   UNL     1     112.641 126.635 136.324  0.00  0.00    +0.000 A 
ATOM      8  C   UNL     1     113.855 126.032 136.776  0.00  0.00    +0.000 A 
ATOM      9  C   UNL     1     112.243 125.923 136.441  0.00  0.00    +0.000 A 
ATOM     10  C   UNL     1     113.456 125.318 136.892  0.00  0.00    +0.000 A 
ATOM     11  C   UNL     1     112.650 125.264 136.724  0.00  0.00    +0.000 A 
ENDROOT
BRANCH   3  13
ATOM     12  O   UNL     1     115.057 130.965 135.619  0.00  0.00    +0.000 OA
ATOM     13  C   UNL     1     113.855 128.828 135.964  0.00  0.00    +0.000 A 
ATOM     14  C   UNL     1     113.796 129.430 136.525  0.00  0.00    +0.000 A 
ATOM     15  C   UNL     1     114.315 128.938 135.288  0.00  0.00    +0.000 A 
ATOM     16  C   UNL     1     114.197 130.142 136.410  0.00  0.00    +0.000 A 
ATOM     17  C   UNL     1     114.715 129.650 135.172  0.00  0.00    +0.000 A 
ATOM     18  C   UNL     1     114.656 130.252 135.733  0.00  0.00    +0.000 A 
ENDBRANCH   3  13
BRANCH  10  19
ATOM     19  O   UNL     1     113.864 124.660 137.176  0.00  0.00    +0.000 OA
ATOM     20  C   UNL     1     114.664 124.721 137.367  0.00  0.00    +0.000 C 
ENDBRANCH  10  19
TORSDOF 2
ENDMDL
