MODEL 1
REMARK VINA RESULT:     -10.4      0.000      0.000
REMARK  Name = 44258951
REMARK  6 active torsions:
REMARK  status: ('A' for Active; 'I' for Inactive)
REMARK    1  A    between atoms: O_2  and  C_15
REMARK    2  A    between atoms: O_2  and  C_21
REMARK    3  A    between atoms: O_3  and  C_18
REMARK    4  A    between atoms: O_3  and  C_20
REMARK    5  A    between atoms: C_21  and  C_25
REMARK    6  A    between atoms: C_22  and  C_27
REMARK                            x       y       z     vdW  Elec       q    Type
REMARK                         _______ _______ _______ _____ _____    ______ ____
ROOT
ATOM      1  O   UNL     1     112.388 127.319 137.179  0.00  0.00    +0.000 OA
ENDROOT
BRANCH   1   6
ATOM      2  O   UNL     1     113.149 126.191 138.885  0.00  0.00    +0.000 OA
ATOM      3  O   UNL     1     112.898 128.544 138.160  0.00  0.00    +0.000 OA
ATOM      4  O   UNL     1     113.494 129.014 139.386  0.00  0.00    +0.000 OA
ATOM      5  O   UNL     1     114.360 127.069 141.384  0.00  0.00    +0.000 OA
ATOM      6  C   UNL     1     112.726 127.146 137.911  0.00  0.00    +0.000 A 
ATOM      7  C   UNL     1     112.810 126.362 138.153  0.00  0.00    +0.000 A 
ATOM      8  C   UNL     1     112.982 127.759 138.402  0.00  0.00    +0.000 A 
ATOM      9  C   UNL     1     113.320 127.587 139.134  0.00  0.00    +0.000 A 
ATOM     10  C   UNL     1     113.403 126.802 139.376  0.00  0.00    +0.000 A 
ATOM     11  C   UNL     1     113.582 128.233 139.636  0.00  0.00    +0.000 A 
ATOM     12  C   UNL     1     113.755 126.610 140.137  0.00  0.00    +0.000 A 
ATOM     13  C   UNL     1     113.935 128.060 140.400  0.00  0.00    +0.000 A 
ATOM     14  C   UNL     1     114.022 127.243 140.652  0.00  0.00    +0.000 A 
BRANCH   7  16
ATOM     15  O   UNL     1     111.790 123.913 136.189  0.00  0.00    +0.000 OA
ATOM     16  C   UNL     1     112.555 125.750 137.662  0.00  0.00    +0.000 A 
ATOM     17  C   UNL     1     111.763 125.520 137.666  0.00  0.00    +0.000 A 
ATOM     18  C   UNL     1     113.092 125.368 137.167  0.00  0.00    +0.000 A 
ATOM     19  C   UNL     1     111.508 124.908 137.176  0.00  0.00    +0.000 A 
ATOM     20  C   UNL     1     112.838 124.755 136.676  0.00  0.00    +0.000 A 
ATOM     21  C   UNL     1     112.045 124.526 136.681  0.00  0.00    +0.000 A 
ENDBRANCH   7  16
ENDBRANCH   1   6
BRANCH   1  28
ATOM     22  O   UNL     1     113.627 127.652 136.552  0.00  0.00    +0.000 OA
ATOM     23  O   UNL     1     112.452 129.257 135.079  0.00  0.00    +0.000 OA
ATOM     24  O   UNL     1     114.084 129.055 134.943  0.00  0.00    +0.000 OA
ATOM     25  C   UNL     1     112.419 128.288 136.129  0.00  0.00    +0.000 C 
ATOM     26  C   UNL     1     112.843 128.722 135.570  0.00  0.00    +0.000 C 
ATOM     27  C   UNL     1     113.660 128.621 135.502  0.00  0.00    +0.000 C 
ATOM     28  C   UNL     1     112.812 127.753 136.620  0.00  0.00    +0.000 C 
ATOM     29  C   UNL     1     114.051 128.086 135.993  0.00  0.00    +0.000 C 
BRANCH  25  30
ATOM     30  O   UNL     1     111.604 128.389 136.197  0.00  0.00    +0.000 OA
BRANCH  30  32
ATOM     31  O   UNL     1     111.413 127.701 134.960  0.00  0.00    +0.000 OA
ATOM     32  C   UNL     1     111.103 128.116 135.601  0.00  0.00    +0.000 C 
BRANCH  32  36
ATOM     33  O   UNL     1     108.873 129.869 135.245  0.00  0.00    +0.000 OA
ATOM     34  O   UNL     1     108.464 127.217 136.230  0.00  0.00    +0.000 OA
ATOM     35  O   UNL     1     107.857 128.685 135.783  0.00  0.00    +0.000 OA
ATOM     36  C   UNL     1     110.292 128.258 135.647  0.00  0.00    +0.000 A 
ATOM     37  C   UNL     1     109.783 127.667 135.916  0.00  0.00    +0.000 A 
ATOM     38  C   UNL     1     109.989 128.992 135.423  0.00  0.00    +0.000 A 
ATOM     39  C   UNL     1     109.177 129.135 135.469  0.00  0.00    +0.000 A 
ATOM     40  C   UNL     1     108.972 127.809 135.961  0.00  0.00    +0.000 A 
ATOM     41  C   UNL     1     108.669 128.543 135.738  0.00  0.00    +0.000 A 
ENDBRANCH  32  36
ENDBRANCH  30  32
ENDBRANCH  25  30
ENDBRANCH   1  28
TORSDOF 6
ENDMDL
MODEL 2
REMARK VINA RESULT:     -10.1      1.669      4.766
REMARK  Name = 44258951
REMARK  6 active torsions:
REMARK  status: ('A' for Active; 'I' for Inactive)
REMARK    1  A    between atoms: O_2  and  C_15
REMARK    2  A    between atoms: O_2  and  C_21
REMARK    3  A    between atoms: O_3  and  C_18
REMARK    4  A    between atoms: O_3  and  C_20
REMARK    5  A    between atoms: C_21  and  C_25
REMARK    6  A    between atoms: C_22  and  C_27
REMARK                            x       y       z     vdW  Elec       q    Type
REMARK                         _______ _______ _______ _____ _____    ______ ____
ROOT
ATOM      1  O   UNL     1     112.057 127.798 137.701  0.00  0.00    +0.000 OA
ENDROOT
BRANCH   1   6
ATOM      2  O   UNL     1     112.474 126.247 136.223  0.00  0.00    +0.000 OA
ATOM      3  O   UNL     1     111.469 126.464 138.475  0.00  0.00    +0.000 OA
ATOM      4  O   UNL     1     111.202 125.047 138.523  0.00  0.00    +0.000 OA
ATOM      5  O   UNL     1     111.967 123.379 136.251  0.00  0.00    +0.000 OA
ATOM      6  C   UNL     1     112.098 127.059 137.337  0.00  0.00    +0.000 A 
ATOM      7  C   UNL     1     112.433 126.986 136.587  0.00  0.00    +0.000 A 
ATOM      8  C   UNL     1     111.804 126.391 137.724  0.00  0.00    +0.000 A 
ATOM      9  C   UNL     1     111.845 125.652 137.360  0.00  0.00    +0.000 A 
ATOM     10  C   UNL     1     112.180 125.580 136.609  0.00  0.00    +0.000 A 
ATOM     11  C   UNL     1     111.535 124.965 137.773  0.00  0.00    +0.000 A 
ATOM     12  C   UNL     1     112.229 124.815 136.220  0.00  0.00    +0.000 A 
ATOM     13  C   UNL     1     111.575 124.193 137.399  0.00  0.00    +0.000 A 
ATOM     14  C   UNL     1     111.924 124.117 136.618  0.00  0.00    +0.000 A 
BRANCH   7  16
ATOM     15  O   UNL     1     113.609 129.655 135.041  0.00  0.00    +0.000 OA
ATOM     16  C   UNL     1     112.727 127.653 136.201  0.00  0.00    +0.000 A 
ATOM     17  C   UNL     1     112.258 128.053 135.652  0.00  0.00    +0.000 A 
ATOM     18  C   UNL     1     113.490 127.921 136.363  0.00  0.00    +0.000 A 
ATOM     19  C   UNL     1     112.551 128.719 135.265  0.00  0.00    +0.000 A 
ATOM     20  C   UNL     1     113.784 128.588 135.976  0.00  0.00    +0.000 A 
ATOM     21  C   UNL     1     113.315 128.987 135.428  0.00  0.00    +0.000 A 
ENDBRANCH   7  16
ENDBRANCH   1   6
BRANCH   1  28
ATOM     22  O   UNL     1     110.652 127.945 137.487  0.00  0.00    +0.000 OA
ATOM     23  O   UNL     1     110.486 129.336 139.528  0.00  0.00    +0.000 OA
ATOM     24  O   UNL     1     109.136 129.019 138.633  0.00  0.00    +0.000 OA
ATOM     25  C   UNL     1     111.272 128.567 138.615  0.00  0.00    +0.000 C 
ATOM     26  C   UNL     1     110.542 128.872 138.848  0.00  0.00    +0.000 C 
ATOM     27  C   UNL     1     109.866 128.714 138.400  0.00  0.00    +0.000 C 
ATOM     28  C   UNL     1     111.326 128.103 137.934  0.00  0.00    +0.000 C 
ATOM     29  C   UNL     1     109.922 128.250 137.720  0.00  0.00    +0.000 C 
BRANCH  25  30
ATOM     30  O   UNL     1     111.946 128.725 139.062  0.00  0.00    +0.000 OA
BRANCH  30  32
ATOM     31  O   UNL     1     111.908 130.090 138.642  0.00  0.00    +0.000 OA
ATOM     32  C   UNL     1     112.280 129.479 139.053  0.00  0.00    +0.000 C 
BRANCH  32  36
ATOM     33  O   UNL     1     114.618 131.073 139.456  0.00  0.00    +0.000 OA
ATOM     34  O   UNL     1     114.177 128.751 141.063  0.00  0.00    +0.000 OA
ATOM     35  O   UNL     1     115.104 130.056 140.662  0.00  0.00    +0.000 OA
ATOM     36  C   UNL     1     112.985 129.623 139.455  0.00  0.00    +0.000 A 
ATOM     37  C   UNL     1     113.229 129.115 140.058  0.00  0.00    +0.000 A 
ATOM     38  C   UNL     1     113.449 130.276 139.254  0.00  0.00    +0.000 A 
ATOM     39  C   UNL     1     114.155 130.420 139.657  0.00  0.00    +0.000 A 
ATOM     40  C   UNL     1     113.934 129.259 140.460  0.00  0.00    +0.000 A 
ATOM     41  C   UNL     1     114.397 129.912 140.259  0.00  0.00    +0.000 A 
ENDBRANCH  32  36
ENDBRANCH  30  32
ENDBRANCH  25  30
ENDBRANCH   1  28
TORSDOF 6
ENDMDL
MODEL 3
REMARK VINA RESULT:     -10.1      1.083      2.758
REMARK  Name = 44258951
REMARK  6 active torsions:
REMARK  status: ('A' for Active; 'I' for Inactive)
REMARK    1  A    between atoms: O_2  and  C_15
REMARK    2  A    between atoms: O_2  and  C_21
REMARK    3  A    between atoms: O_3  and  C_18
REMARK    4  A    between atoms: O_3  and  C_20
REMARK    5  A    between atoms: C_21  and  C_25
REMARK    6  A    between atoms: C_22  and  C_27
REMARK                            x       y       z     vdW  Elec       q    Type
REMARK                         _______ _______ _______ _____ _____    ______ ____
ROOT
ATOM      1  O   UNL     1     111.757 127.476 136.865  0.00  0.00    +0.000 OA
ENDROOT
BRANCH   1   6
ATOM      2  O   UNL     1     113.399 127.811 138.263  0.00  0.00    +0.000 OA
ATOM      3  O   UNL     1     111.202 126.674 138.196  0.00  0.00    +0.000 OA
ATOM      4  O   UNL     1     111.356 126.234 139.560  0.00  0.00    +0.000 OA
ATOM      5  O   UNL     1     113.779 126.958 141.022  0.00  0.00    +0.000 OA
ATOM      6  C   UNL     1     112.212 127.455 137.552  0.00  0.00    +0.000 A 
ATOM      7  C   UNL     1     112.945 127.834 137.575  0.00  0.00    +0.000 A 
ATOM      8  C   UNL     1     111.934 127.053 138.218  0.00  0.00    +0.000 A 
ATOM      9  C   UNL     1     112.390 127.031 138.906  0.00  0.00    +0.000 A 
ATOM     10  C   UNL     1     113.122 127.411 138.928  0.00  0.00    +0.000 A 
ATOM     11  C   UNL     1     112.090 126.610 139.593  0.00  0.00    +0.000 A 
ATOM     12  C   UNL     1     113.605 127.395 139.639  0.00  0.00    +0.000 A 
ATOM     13  C   UNL     1     112.559 126.584 140.312  0.00  0.00    +0.000 A 
ATOM     14  C   UNL     1     113.322 126.978 140.335  0.00  0.00    +0.000 A 
BRANCH   7  16
ATOM     15  O   UNL     1     114.054 129.438 134.913  0.00  0.00    +0.000 OA
ATOM     16  C   UNL     1     113.222 128.235 136.910  0.00  0.00    +0.000 A 
ATOM     17  C   UNL     1     112.991 129.015 136.772  0.00  0.00    +0.000 A 
ATOM     18  C   UNL     1     113.730 127.856 136.382  0.00  0.00    +0.000 A 
ATOM     19  C   UNL     1     113.268 129.416 136.107  0.00  0.00    +0.000 A 
ATOM     20  C   UNL     1     114.007 128.257 135.716  0.00  0.00    +0.000 A 
ATOM     21  C   UNL     1     113.776 129.037 135.579  0.00  0.00    +0.000 A 
ENDBRANCH   7  16
ENDBRANCH   1   6
BRANCH   1  28
ATOM     22  O   UNL     1     112.020 126.115 136.520  0.00  0.00    +0.000 OA
ATOM     23  O   UNL     1     109.828 125.981 135.378  0.00  0.00    +0.000 OA
ATOM     24  O   UNL     1     110.822 124.664 135.413  0.00  0.00    +0.000 OA
ATOM     25  C   UNL     1     110.792 126.729 136.121  0.00  0.00    +0.000 C 
ATOM     26  C   UNL     1     110.559 126.026 135.758  0.00  0.00    +0.000 C 
ATOM     27  C   UNL     1     111.056 125.367 135.776  0.00  0.00    +0.000 C 
ATOM     28  C   UNL     1     111.523 126.773 136.502  0.00  0.00    +0.000 C 
ATOM     29  C   UNL     1     111.786 125.412 136.157  0.00  0.00    +0.000 C 
BRANCH  25  30
ATOM     30  O   UNL     1     110.296 127.387 136.104  0.00  0.00    +0.000 OA
BRANCH  30  32
ATOM     31  O   UNL     1     110.506 127.513 134.696  0.00  0.00    +0.000 OA
ATOM     32  C   UNL     1     110.180 127.798 135.398  0.00  0.00    +0.000 C 
BRANCH  32  36
ATOM     33  O   UNL     1     107.835 129.245 136.157  0.00  0.00    +0.000 OA
ATOM     34  O   UNL     1     109.869 130.528 134.612  0.00  0.00    +0.000 OA
ATOM     35  O   UNL     1     108.409 130.583 135.380  0.00  0.00    +0.000 OA
ATOM     36  C   UNL     1     109.738 128.494 135.393  0.00  0.00    +0.000 A 
ATOM     37  C   UNL     1     110.024 129.163 135.005  0.00  0.00    +0.000 A 
ATOM     38  C   UNL     1     109.008 128.521 135.777  0.00  0.00    +0.000 A 
ATOM     39  C   UNL     1     108.565 129.218 135.773  0.00  0.00    +0.000 A 
ATOM     40  C   UNL     1     109.582 129.859 135.000  0.00  0.00    +0.000 A 
ATOM     41  C   UNL     1     108.852 129.886 135.384  0.00  0.00    +0.000 A 
ENDBRANCH  32  36
ENDBRANCH  30  32
ENDBRANCH  25  30
ENDBRANCH   1  28
TORSDOF 6
ENDMDL
MODEL 4
REMARK VINA RESULT:     -10.0      2.066      4.015
REMARK  Name = 44258951
REMARK  6 active torsions:
REMARK  status: ('A' for Active; 'I' for Inactive)
REMARK    1  A    between atoms: O_2  and  C_15
REMARK    2  A    between atoms: O_2  and  C_21
REMARK    3  A    between atoms: O_3  and  C_18
REMARK    4  A    between atoms: O_3  and  C_20
REMARK    5  A    between atoms: C_21  and  C_25
REMARK    6  A    between atoms: C_22  and  C_27
REMARK                            x       y       z     vdW  Elec       q    Type
REMARK                         _______ _______ _______ _____ _____    ______ ____
ROOT
ATOM      1  O   UNL     1     112.272 126.811 136.845  0.00  0.00    +0.000 OA
ENDROOT
BRANCH   1   6
ATOM      2  O   UNL     1     114.178 127.539 136.070  0.00  0.00    +0.000 OA
ATOM      3  O   UNL     1     111.820 128.273 136.227  0.00  0.00    +0.000 OA
ATOM      4  O   UNL     1     112.130 129.509 135.553  0.00  0.00    +0.000 OA
ATOM      5  O   UNL     1     114.878 130.014 134.704  0.00  0.00    +0.000 OA
ATOM      6  C   UNL     1     112.832 127.297 136.484  0.00  0.00    +0.000 A 
ATOM      7  C   UNL     1     113.619 127.052 136.432  0.00  0.00    +0.000 A 
ATOM      8  C   UNL     1     112.606 128.028 136.175  0.00  0.00    +0.000 A 
ATOM      9  C   UNL     1     113.166 128.514 135.814  0.00  0.00    +0.000 A 
ATOM     10  C   UNL     1     113.952 128.270 135.762  0.00  0.00    +0.000 A 
ATOM     11  C   UNL     1     112.918 129.273 135.496  0.00  0.00    +0.000 A 
ATOM     12  C   UNL     1     114.545 128.768 135.388  0.00  0.00    +0.000 A 
ATOM     13  C   UNL     1     113.497 129.784 135.119  0.00  0.00    +0.000 A 
ATOM     14  C   UNL     1     114.316 129.529 135.064  0.00  0.00    +0.000 A 
BRANCH   7  16
ATOM     15  O   UNL     1     114.522 124.129 137.667  0.00  0.00    +0.000 OA
ATOM     16  C   UNL     1     113.844 126.322 136.740  0.00  0.00    +0.000 A 
ATOM     17  C   UNL     1     113.991 126.243 137.549  0.00  0.00    +0.000 A 
ATOM     18  C   UNL     1     113.924 125.670 136.241  0.00  0.00    +0.000 A 
ATOM     19  C   UNL     1     114.217 125.512 137.857  0.00  0.00    +0.000 A 
ATOM     20  C   UNL     1     114.150 124.939 136.550  0.00  0.00    +0.000 A 
ATOM     21  C   UNL     1     114.296 124.860 137.358  0.00  0.00    +0.000 A 
ENDBRANCH   7  16
ENDBRANCH   1   6
BRANCH   1  28
ATOM     22  O   UNL     1     111.680 126.372 135.621  0.00  0.00    +0.000 OA
ATOM     23  O   UNL     1     109.489 126.169 136.753  0.00  0.00    +0.000 OA
ATOM     24  O   UNL     1     109.628 125.797 135.151  0.00  0.00    +0.000 OA
ATOM     25  C   UNL     1     110.880 126.490 136.799  0.00  0.00    +0.000 C 
ATOM     26  C   UNL     1     110.219 126.237 136.376  0.00  0.00    +0.000 C 
ATOM     27  C   UNL     1     110.289 126.051 135.574  0.00  0.00    +0.000 C 
ATOM     28  C   UNL     1     111.611 126.558 136.421  0.00  0.00    +0.000 C 
ATOM     29  C   UNL     1     111.019 126.119 135.198  0.00  0.00    +0.000 C 
BRANCH  25  30
ATOM     30  O   UNL     1     110.811 126.676 137.600  0.00  0.00    +0.000 OA
BRANCH  30  32
ATOM     31  O   UNL     1     110.689 125.287 137.914  0.00  0.00    +0.000 OA
ATOM     32  C   UNL     1     110.687 126.077 138.154  0.00  0.00    +0.000 C 
BRANCH  32  36
ATOM     33  O   UNL     1     111.643 126.227 140.843  0.00  0.00    +0.000 OA
ATOM     34  O   UNL     1     108.982 127.065 140.223  0.00  0.00    +0.000 OA
ATOM     35  O   UNL     1     110.188 126.836 141.326  0.00  0.00    +0.000 OA
ATOM     36  C   UNL     1     110.562 126.266 138.946  0.00  0.00    +0.000 A 
ATOM     37  C   UNL     1     109.835 126.571 139.188  0.00  0.00    +0.000 A 
ATOM     38  C   UNL     1     111.165 126.152 139.497  0.00  0.00    +0.000 A 
ATOM     39  C   UNL     1     111.040 126.342 140.291  0.00  0.00    +0.000 A 
ATOM     40  C   UNL     1     109.710 126.761 139.981  0.00  0.00    +0.000 A 
ATOM     41  C   UNL     1     110.313 126.646 140.532  0.00  0.00    +0.000 A 
ENDBRANCH  32  36
ENDBRANCH  30  32
ENDBRANCH  25  30
ENDBRANCH   1  28
TORSDOF 6
ENDMDL
MODEL 5
REMARK VINA RESULT:     -10.0      1.421      5.104
REMARK  Name = 44258951
REMARK  6 active torsions:
REMARK  status: ('A' for Active; 'I' for Inactive)
REMARK    1  A    between atoms: O_2  and  C_15
REMARK    2  A    between atoms: O_2  and  C_21
REMARK    3  A    between atoms: O_3  and  C_18
REMARK    4  A    between atoms: O_3  and  C_20
REMARK    5  A    between atoms: C_21  and  C_25
REMARK    6  A    between atoms: C_22  and  C_27
REMARK                            x       y       z     vdW  Elec       q    Type
REMARK                         _______ _______ _______ _____ _____    ______ ____
ROOT
ATOM      1  O   UNL     1     111.878 128.450 137.014  0.00  0.00    +0.000 OA
ENDROOT
BRANCH   1   6
ATOM      2  O   UNL     1     111.187 129.903 135.539  0.00  0.00    +0.000 OA
ATOM      3  O   UNL     1     110.249 128.408 137.275  0.00  0.00    +0.000 OA
ATOM      4  O   UNL     1     108.910 128.852 136.973  0.00  0.00    +0.000 OA
ATOM      5  O   UNL     1     108.512 130.845 134.877  0.00  0.00    +0.000 OA
ATOM      6  C   UNL     1     111.377 128.928 136.566  0.00  0.00    +0.000 A 
ATOM      7  C   UNL     1     111.689 129.426 135.987  0.00  0.00    +0.000 A 
ATOM      8  C   UNL     1     110.562 128.907 136.696  0.00  0.00    +0.000 A 
ATOM      9  C   UNL     1     110.061 129.384 136.248  0.00  0.00    +0.000 A 
ATOM     10  C   UNL     1     110.373 129.882 135.669  0.00  0.00    +0.000 A 
ATOM     11  C   UNL     1     109.214 129.353 136.393  0.00  0.00    +0.000 A 
ATOM     12  C   UNL     1     109.860 130.384 135.196  0.00  0.00    +0.000 A 
ATOM     13  C   UNL     1     108.686 129.848 135.929  0.00  0.00    +0.000 A 
ATOM     14  C   UNL     1     109.012 130.367 135.327  0.00  0.00    +0.000 A 
BRANCH   7  16
ATOM     15  O   UNL     1     114.947 129.509 135.466  0.00  0.00    +0.000 OA
ATOM     16  C   UNL     1     112.503 129.447 135.857  0.00  0.00    +0.000 A 
ATOM     17  C   UNL     1     112.964 130.031 136.215  0.00  0.00    +0.000 A 
ATOM     18  C   UNL     1     112.857 128.884 135.369  0.00  0.00    +0.000 A 
ATOM     19  C   UNL     1     113.778 130.052 136.085  0.00  0.00    +0.000 A 
ATOM     20  C   UNL     1     113.672 128.905 135.239  0.00  0.00    +0.000 A 
ATOM     21  C   UNL     1     114.132 129.488 135.597  0.00  0.00    +0.000 A 
ENDBRANCH   7  16
ENDBRANCH   1   6
BRANCH   1  28
ATOM     22  O   UNL     1     111.767 129.249 138.193  0.00  0.00    +0.000 OA
ATOM     23  O   UNL     1     112.134 127.240 139.590  0.00  0.00    +0.000 OA
ATOM     24  O   UNL     1     111.900 128.709 140.304  0.00  0.00    +0.000 OA
ATOM     25  C   UNL     1     112.006 127.844 138.302  0.00  0.00    +0.000 C 
ATOM     26  C   UNL     1     112.012 127.909 139.124  0.00  0.00    +0.000 C 
ATOM     27  C   UNL     1     111.895 128.644 139.482  0.00  0.00    +0.000 C 
ATOM     28  C   UNL     1     111.884 128.515 137.837  0.00  0.00    +0.000 C 
ATOM     29  C   UNL     1     111.772 129.314 139.015  0.00  0.00    +0.000 C 
BRANCH  25  30
ATOM     30  O   UNL     1     112.123 127.110 137.945  0.00  0.00    +0.000 OA
BRANCH  30  32
ATOM     31  O   UNL     1     113.486 127.117 138.373  0.00  0.00    +0.000 OA
ATOM     32  C   UNL     1     112.868 126.755 137.965  0.00  0.00    +0.000 C 
BRANCH  32  36
ATOM     33  O   UNL     1     114.542 125.054 136.394  0.00  0.00    +0.000 OA
ATOM     34  O   UNL     1     111.952 124.157 137.203  0.00  0.00    +0.000 OA
ATOM     35  O   UNL     1     113.374 123.889 136.409  0.00  0.00    +0.000 OA
ATOM     36  C   UNL     1     112.994 126.039 137.576  0.00  0.00    +0.000 A 
ATOM     37  C   UNL     1     112.410 125.456 137.584  0.00  0.00    +0.000 A 
ATOM     38  C   UNL     1     113.705 125.905 137.180  0.00  0.00    +0.000 A 
ATOM     39  C   UNL     1     113.832 125.188 136.790  0.00  0.00    +0.000 A 
ATOM     40  C   UNL     1     112.536 124.740 137.195  0.00  0.00    +0.000 A 
ATOM     41  C   UNL     1     113.247 124.606 136.799  0.00  0.00    +0.000 A 
ENDBRANCH  32  36
ENDBRANCH  30  32
ENDBRANCH  25  30
ENDBRANCH   1  28
TORSDOF 6
ENDMDL
MODEL 6
REMARK VINA RESULT:      -9.9      3.292      5.047
REMARK  Name = 44258951
REMARK  6 active torsions:
REMARK  status: ('A' for Active; 'I' for Inactive)
REMARK    1  A    between atoms: O_2  and  C_15
REMARK    2  A    between atoms: O_2  and  C_21
REMARK    3  A    between atoms: O_3  and  C_18
REMARK    4  A    between atoms: O_3  and  C_20
REMARK    5  A    between atoms: C_21  and  C_25
REMARK    6  A    between atoms: C_22  and  C_27
REMARK                            x       y       z     vdW  Elec       q    Type
REMARK                         _______ _______ _______ _____ _____    ______ ____
ROOT
ATOM      1  O   UNL     1     110.822 130.738 137.228  0.00  0.00    +0.000 OA
ENDROOT
BRANCH   1   6
ATOM      2  O   UNL     1     111.811 129.378 135.836  0.00  0.00    +0.000 OA
ATOM      3  O   UNL     1     112.401 131.171 137.438  0.00  0.00    +0.000 OA
ATOM      4  O   UNL     1     113.802 131.025 137.129  0.00  0.00    +0.000 OA
ATOM      5  O   UNL     1     114.623 129.027 135.164  0.00  0.00    +0.000 OA
ATOM      6  C   UNL     1     111.414 130.357 136.799  0.00  0.00    +0.000 A 
ATOM      7  C   UNL     1     111.218 129.759 136.265  0.00  0.00    +0.000 A 
ATOM      8  C   UNL     1     112.204 130.573 136.904  0.00  0.00    +0.000 A 
ATOM      9  C   UNL     1     112.796 130.192 136.475  0.00  0.00    +0.000 A 
ATOM     10  C   UNL     1     112.600 129.594 135.941  0.00  0.00    +0.000 A 
ATOM     11  C   UNL     1     113.615 130.426 136.593  0.00  0.00    +0.000 A 
ATOM     12  C   UNL     1     113.209 129.189 135.489  0.00  0.00    +0.000 A 
ATOM     13  C   UNL     1     114.237 130.032 136.149  0.00  0.00    +0.000 A 
ATOM     14  C   UNL     1     114.032 129.410 135.594  0.00  0.00    +0.000 A 
BRANCH   7  16
ATOM     15  O   UNL     1     108.061 128.894 135.846  0.00  0.00    +0.000 OA
ATOM     16  C   UNL     1     110.429 129.543 136.160  0.00  0.00    +0.000 A 
ATOM     17  C   UNL     1     109.995 129.855 135.531  0.00  0.00    +0.000 A 
ATOM     18  C   UNL     1     110.073 129.015 136.684  0.00  0.00    +0.000 A 
ATOM     19  C   UNL     1     109.207 129.639 135.426  0.00  0.00    +0.000 A 
ATOM     20  C   UNL     1     109.283 128.799 136.580  0.00  0.00    +0.000 A 
ATOM     21  C   UNL     1     108.851 129.111 135.951  0.00  0.00    +0.000 A 
ENDBRANCH   7  16
ENDBRANCH   1   6
BRANCH   1  28
ATOM     22  O   UNL     1     110.873 131.935 136.450  0.00  0.00    +0.000 OA
ATOM     23  O   UNL     1     110.169 133.250 138.425  0.00  0.00    +0.000 OA
ATOM     24  O   UNL     1     110.455 134.009 136.988  0.00  0.00    +0.000 OA
ATOM     25  C   UNL     1     110.496 131.994 137.827  0.00  0.00    +0.000 C 
ATOM     26  C   UNL     1     110.404 132.811 137.767  0.00  0.00    +0.000 C 
ATOM     27  C   UNL     1     110.547 133.191 137.048  0.00  0.00    +0.000 C 
ATOM     28  C   UNL     1     110.730 131.556 137.168  0.00  0.00    +0.000 C 
ATOM     29  C   UNL     1     110.781 132.753 136.390  0.00  0.00    +0.000 C 
BRANCH  25  30
ATOM     30  O   UNL     1     110.353 131.615 138.545  0.00  0.00    +0.000 OA
BRANCH  30  32
ATOM     31  O   UNL     1     108.958 131.893 138.416  0.00  0.00    +0.000 OA
ATOM     32  C   UNL     1     109.583 131.554 138.834  0.00  0.00    +0.000 C 
BRANCH  32  36
ATOM     33  O   UNL     1     110.227 131.055 141.573  0.00  0.00    +0.000 OA
ATOM     34  O   UNL     1     108.065 129.654 140.336  0.00  0.00    +0.000 OA
ATOM     35  O   UNL     1     109.001 129.955 141.662  0.00  0.00    +0.000 OA
ATOM     36  C   UNL     1     109.437 131.154 139.540  0.00  0.00    +0.000 A 
ATOM     37  C   UNL     1     108.824 130.604 139.585  0.00  0.00    +0.000 A 
ATOM     38  C   UNL     1     109.905 131.305 140.203  0.00  0.00    +0.000 A 
ATOM     39  C   UNL     1     109.760 130.905 140.911  0.00  0.00    +0.000 A 
ATOM     40  C   UNL     1     108.678 130.205 140.292  0.00  0.00    +0.000 A 
ATOM     41  C   UNL     1     109.146 130.355 140.954  0.00  0.00    +0.000 A 
ENDBRANCH  32  36
ENDBRANCH  30  32
ENDBRANCH  25  30
ENDBRANCH   1  28
TORSDOF 6
ENDMDL
MODEL 7
REMARK VINA RESULT:      -9.8      1.403      5.145
REMARK  Name = 44258951
REMARK  6 active torsions:
REMARK  status: ('A' for Active; 'I' for Inactive)
REMARK    1  A    between atoms: O_2  and  C_15
REMARK    2  A    between atoms: O_2  and  C_21
REMARK    3  A    between atoms: O_3  and  C_18
REMARK    4  A    between atoms: O_3  and  C_20
REMARK    5  A    between atoms: C_21  and  C_25
REMARK    6  A    between atoms: C_22  and  C_27
REMARK                            x       y       z     vdW  Elec       q    Type
REMARK                         _______ _______ _______ _____ _____    ______ ____
ROOT
ATOM      1  O   UNL     1     111.042 128.133 136.165  0.00  0.00    +0.000 OA
ENDROOT
BRANCH   1   6
ATOM      2  O   UNL     1     110.798 130.201 135.511  0.00  0.00    +0.000 OA
ATOM      3  O   UNL     1     109.409 128.316 136.314  0.00  0.00    +0.000 OA
ATOM      4  O   UNL     1     108.212 129.114 136.203  0.00  0.00    +0.000 OA
ATOM      5  O   UNL     1     108.425 131.870 135.262  0.00  0.00    +0.000 OA
ATOM      6  C   UNL     1     110.689 128.853 135.971  0.00  0.00    +0.000 A 
ATOM      7  C   UNL     1     111.152 129.481 135.704  0.00  0.00    +0.000 A 
ATOM      8  C   UNL     1     109.872 128.945 136.046  0.00  0.00    +0.000 A 
ATOM      9  C   UNL     1     109.519 129.665 135.853  0.00  0.00    +0.000 A 
ATOM     10  C   UNL     1     109.982 130.293 135.585  0.00  0.00    +0.000 A 
ATOM     11  C   UNL     1     108.667 129.748 135.934  0.00  0.00    +0.000 A 
ATOM     12  C   UNL     1     109.625 131.048 135.381  0.00  0.00    +0.000 A 
ATOM     13  C   UNL     1     108.293 130.495 135.735  0.00  0.00    +0.000 A 
ATOM     14  C   UNL     1     108.776 131.149 135.456  0.00  0.00    +0.000 A 
BRANCH   7  16
ATOM     15  O   UNL     1     114.418 129.113 135.407  0.00  0.00    +0.000 OA
ATOM     16  C   UNL     1     111.968 129.389 135.630  0.00  0.00    +0.000 A 
ATOM     17  C   UNL     1     112.297 129.193 134.899  0.00  0.00    +0.000 A 
ATOM     18  C   UNL     1     112.456 129.493 136.287  0.00  0.00    +0.000 A 
ATOM     19  C   UNL     1     113.113 129.102 134.824  0.00  0.00    +0.000 A 
ATOM     20  C   UNL     1     113.273 129.401 136.212  0.00  0.00    +0.000 A 
ATOM     21  C   UNL     1     113.601 129.205 135.481  0.00  0.00    +0.000 A 
ENDBRANCH   7  16
ENDBRANCH   1   6
BRANCH   1  28
ATOM     22  O   UNL     1     110.575 127.464 134.993  0.00  0.00    +0.000 OA
ATOM     23  O   UNL     1     110.547 125.319 136.227  0.00  0.00    +0.000 OA
ATOM     24  O   UNL     1     110.089 125.364 134.642  0.00  0.00    +0.000 OA
ATOM     25  C   UNL     1     110.795 126.726 136.196  0.00  0.00    +0.000 C 
ATOM     26  C   UNL     1     110.556 126.034 135.816  0.00  0.00    +0.000 C 
ATOM     27  C   UNL     1     110.327 126.056 135.023  0.00  0.00    +0.000 C 
ATOM     28  C   UNL     1     110.803 127.441 135.784  0.00  0.00    +0.000 C 
ATOM     29  C   UNL     1     110.336 126.772 134.612  0.00  0.00    +0.000 C 
BRANCH  25  30
ATOM     30  O   UNL     1     111.023 126.703 136.988  0.00  0.00    +0.000 OA
BRANCH  30  32
ATOM     31  O   UNL     1     112.195 125.966 136.632  0.00  0.00    +0.000 OA
ATOM     32  C   UNL     1     111.739 126.351 137.201  0.00  0.00    +0.000 C 
BRANCH  32  36
ATOM     33  O   UNL     1     113.832 126.783 139.098  0.00  0.00    +0.000 OA
ATOM     34  O   UNL     1     111.203 126.117 139.999  0.00  0.00    +0.000 OA
ATOM     35  O   UNL     1     112.777 126.483 140.331  0.00  0.00    +0.000 OA
ATOM     36  C   UNL     1     111.998 126.384 137.983  0.00  0.00    +0.000 A 
ATOM     37  C   UNL     1     111.471 126.234 138.600  0.00  0.00    +0.000 A 
ATOM     38  C   UNL     1     112.785 126.567 138.149  0.00  0.00    +0.000 A 
ATOM     39  C   UNL     1     113.045 126.600 138.932  0.00  0.00    +0.000 A 
ATOM     40  C   UNL     1     111.730 126.267 139.382  0.00  0.00    +0.000 A 
ATOM     41  C   UNL     1     112.517 126.450 139.548  0.00  0.00    +0.000 A 
ENDBRANCH  32  36
ENDBRANCH  30  32
ENDBRANCH  25  30
ENDBRANCH   1  28
TORSDOF 6
ENDMDL
MODEL 8
REMARK VINA RESULT:      -9.8     10.742     12.202
REMARK  Name = 44258951
REMARK  6 active torsions:
REMARK  status: ('A' for Active; 'I' for Inactive)
REMARK    1  A    between atoms: O_2  and  C_15
REMARK    2  A    between atoms: O_2  and  C_21
REMARK    3  A    between atoms: O_3  and  C_18
REMARK    4  A    between atoms: O_3  and  C_20
REMARK    5  A    between atoms: C_21  and  C_25
REMARK    6  A    between atoms: C_22  and  C_27
REMARK                            x       y       z     vdW  Elec       q    Type
REMARK                         _______ _______ _______ _____ _____    ______ ____
ROOT
ATOM      1  O   UNL     1     105.645 125.793 146.385  0.00  0.00    +0.000 OA
ENDROOT
BRANCH   1   6
ATOM      2  O   UNL     1     107.063 127.369 146.908  0.00  0.00    +0.000 OA
ATOM      3  O   UNL     1     105.226 126.963 145.299  0.00  0.00    +0.000 OA
ATOM      4  O   UNL     1     105.401 128.275 144.726  0.00  0.00    +0.000 OA
ATOM      5  O   UNL     1     107.472 130.031 145.801  0.00  0.00    +0.000 OA
ATOM      6  C   UNL     1     106.048 126.513 146.379  0.00  0.00    +0.000 A 
ATOM      7  C   UNL     1     106.661 126.648 146.915  0.00  0.00    +0.000 A 
ATOM      8  C   UNL     1     105.839 127.098 145.836  0.00  0.00    +0.000 A 
ATOM      9  C   UNL     1     106.242 127.818 145.829  0.00  0.00    +0.000 A 
ATOM     10  C   UNL     1     106.854 127.953 146.366  0.00  0.00    +0.000 A 
ATOM     11  C   UNL     1     106.014 128.419 145.259  0.00  0.00    +0.000 A 
ATOM     12  C   UNL     1     107.281 128.699 146.368  0.00  0.00    +0.000 A 
ATOM     13  C   UNL     1     106.430 129.171 145.247  0.00  0.00    +0.000 A 
ATOM     14  C   UNL     1     107.067 129.312 145.805  0.00  0.00    +0.000 A 
BRANCH   7  16
ATOM     15  O   UNL     1     107.499 124.309 149.086  0.00  0.00    +0.000 OA
ATOM     16  C   UNL     1     106.870 126.064 147.458  0.00  0.00    +0.000 A 
ATOM     17  C   UNL     1     106.435 125.970 148.153  0.00  0.00    +0.000 A 
ATOM     18  C   UNL     1     107.515 125.572 147.306  0.00  0.00    +0.000 A 
ATOM     19  C   UNL     1     106.644 125.386 148.695  0.00  0.00    +0.000 A 
ATOM     20  C   UNL     1     107.724 124.987 147.849  0.00  0.00    +0.000 A 
ATOM     21  C   UNL     1     107.289 124.894 148.543  0.00  0.00    +0.000 A 
ENDBRANCH   7  16
ENDBRANCH   1   6
BRANCH   1  28
ATOM     22  O   UNL     1     106.276 125.304 145.201  0.00  0.00    +0.000 OA
ATOM     23  O   UNL     1     104.261 123.965 144.680  0.00  0.00    +0.000 OA
ATOM     24  O   UNL     1     105.564 123.922 143.669  0.00  0.00    +0.000 OA
ATOM     25  C   UNL     1     104.953 124.879 145.533  0.00  0.00    +0.000 C 
ATOM     26  C   UNL     1     104.932 124.411 144.854  0.00  0.00    +0.000 C 
ATOM     27  C   UNL     1     105.584 124.390 144.348  0.00  0.00    +0.000 C 
ATOM     28  C   UNL     1     105.625 125.325 145.706  0.00  0.00    +0.000 C 
ATOM     29  C   UNL     1     106.255 124.836 144.522  0.00  0.00    +0.000 C 
BRANCH  25  30
ATOM     30  O   UNL     1     104.302 124.900 146.039  0.00  0.00    +0.000 OA
BRANCH  30  32
ATOM     31  O   UNL     1     104.571 123.557 146.445  0.00  0.00    +0.000 OA
ATOM     32  C   UNL     1     104.105 124.237 146.488  0.00  0.00    +0.000 C 
BRANCH  32  36
ATOM     33  O   UNL     1     102.969 124.170 149.109  0.00  0.00    +0.000 OA
ATOM     34  O   UNL     1     101.271 124.396 146.822  0.00  0.00    +0.000 OA
ATOM     35  O   UNL     1     101.458 124.298 148.458  0.00  0.00    +0.000 OA
ATOM     36  C   UNL     1     103.444 124.252 146.980  0.00  0.00    +0.000 A 
ATOM     37  C   UNL     1     102.688 124.316 146.655  0.00  0.00    +0.000 A 
ATOM     38  C   UNL     1     103.538 124.203 147.798  0.00  0.00    +0.000 A 
ATOM     39  C   UNL     1     102.875 124.219 148.291  0.00  0.00    +0.000 A 
ATOM     40  C   UNL     1     102.027 124.332 147.147  0.00  0.00    +0.000 A 
ATOM     41  C   UNL     1     102.121 124.283 147.965  0.00  0.00    +0.000 A 
ENDBRANCH  32  36
ENDBRANCH  30  32
ENDBRANCH  25  30
ENDBRANCH   1  28
TORSDOF 6
ENDMDL
MODEL 9
REMARK VINA RESULT:      -9.8      1.573      3.569
REMARK  Name = 44258951
REMARK  6 active torsions:
REMARK  status: ('A' for Active; 'I' for Inactive)
REMARK    1  A    between atoms: O_2  and  C_15
REMARK    2  A    between atoms: O_2  and  C_21
REMARK    3  A    between atoms: O_3  and  C_18
REMARK    4  A    between atoms: O_3  and  C_20
REMARK    5  A    between atoms: C_21  and  C_25
REMARK    6  A    between atoms: C_22  and  C_27
REMARK                            x       y       z     vdW  Elec       q    Type
REMARK                         _______ _______ _______ _____ _____    ______ ____
ROOT
ATOM      1  O   UNL     1     111.601 128.033 137.145  0.00  0.00    +0.000 OA
ENDROOT
BRANCH   1   6
ATOM      2  O   UNL     1     112.820 126.450 136.266  0.00  0.00    +0.000 OA
ATOM      3  O   UNL     1     110.915 126.696 137.827  0.00  0.00    +0.000 OA
ATOM      4  O   UNL     1     110.842 125.267 138.008  0.00  0.00    +0.000 OA
ATOM      5  O   UNL     1     112.731 123.557 136.583  0.00  0.00    +0.000 OA
ATOM      6  C   UNL     1     111.893 127.283 136.966  0.00  0.00    +0.000 A 
ATOM      7  C   UNL     1     112.528 127.201 136.445  0.00  0.00    +0.000 A 
ATOM      8  C   UNL     1     111.550 126.614 137.307  0.00  0.00    +0.000 A 
ATOM      9  C   UNL     1     111.842 125.864 137.127  0.00  0.00    +0.000 A 
ATOM     10  C   UNL     1     112.477 125.782 136.607  0.00  0.00    +0.000 A 
ATOM     11  C   UNL     1     111.477 125.175 137.489  0.00  0.00    +0.000 A 
ATOM     12  C   UNL     1     112.790 125.006 136.412  0.00  0.00    +0.000 A 
ATOM     13  C   UNL     1     111.776 124.391 137.306  0.00  0.00    +0.000 A 
ATOM     14  C   UNL     1     112.437 124.306 136.764  0.00  0.00    +0.000 A 
BRANCH   7  16
ATOM     15  O   UNL     1     113.899 129.875 135.081  0.00  0.00    +0.000 OA
ATOM     16  C   UNL     1     112.871 127.869 136.105  0.00  0.00    +0.000 A 
ATOM     17  C   UNL     1     113.558 128.191 136.428  0.00  0.00    +0.000 A 
ATOM     18  C   UNL     1     112.526 128.216 135.440  0.00  0.00    +0.000 A 
ATOM     19  C   UNL     1     113.901 128.859 136.087  0.00  0.00    +0.000 A 
ATOM     20  C   UNL     1     112.869 128.885 135.099  0.00  0.00    +0.000 A 
ATOM     21  C   UNL     1     113.556 129.206 135.423  0.00  0.00    +0.000 A 
ENDBRANCH   7  16
ENDBRANCH   1   6
BRANCH   1  28
ATOM     22  O   UNL     1     112.161 128.044 138.459  0.00  0.00    +0.000 OA
ATOM     23  O   UNL     1     110.360 129.564 139.215  0.00  0.00    +0.000 OA
ATOM     24  O   UNL     1     111.521 129.068 140.278  0.00  0.00    +0.000 OA
ATOM     25  C   UNL     1     110.980 128.799 138.180  0.00  0.00    +0.000 C 
ATOM     26  C   UNL     1     110.960 129.057 138.963  0.00  0.00    +0.000 C 
ATOM     27  C   UNL     1     111.541 128.809 139.495  0.00  0.00    +0.000 C 
ATOM     28  C   UNL     1     111.581 128.292 137.929  0.00  0.00    +0.000 C 
ATOM     29  C   UNL     1     112.141 128.303 139.242  0.00  0.00    +0.000 C 
BRANCH  25  30
ATOM     30  O   UNL     1     110.400 129.047 137.649  0.00  0.00    +0.000 OA
BRANCH  30  32
ATOM     31  O   UNL     1     110.902 130.382 137.718  0.00  0.00    +0.000 OA
ATOM     32  C   UNL     1     110.381 129.831 137.394  0.00  0.00    +0.000 C 
BRANCH  32  36
ATOM     33  O   UNL     1     109.677 131.537 135.212  0.00  0.00    +0.000 OA
ATOM     34  O   UNL     1     107.851 129.526 136.101  0.00  0.00    +0.000 OA
ATOM     35  O   UNL     1     108.224 130.765 135.077  0.00  0.00    +0.000 OA
ATOM     36  C   UNL     1     109.842 130.064 136.815  0.00  0.00    +0.000 A 
ATOM     37  C   UNL     1     109.116 129.679 136.747  0.00  0.00    +0.000 A 
ATOM     38  C   UNL     1     110.029 130.684 136.303  0.00  0.00    +0.000 A 
ATOM     39  C   UNL     1     109.490 130.917 135.724  0.00  0.00    +0.000 A 
ATOM     40  C   UNL     1     108.577 129.912 136.169  0.00  0.00    +0.000 A 
ATOM     41  C   UNL     1     108.764 130.531 135.657  0.00  0.00    +0.000 A 
ENDBRANCH  32  36
ENDBRANCH  30  32
ENDBRANCH  25  30
ENDBRANCH   1  28
TORSDOF 6
ENDMDL
MODEL 10
REMARK VINA RESULT:      -9.8      1.937      3.810
REMARK  Name = 44258951
REMARK  6 active torsions:
REMARK  status: ('A' for Active; 'I' for Inactive)
REMARK    1  A    between atoms: O_2  and  C_15
REMARK    2  A    between atoms: O_2  and  C_21
REMARK    3  A    between atoms: O_3  and  C_18
REMARK    4  A    between atoms: O_3  and  C_20
REMARK    5  A    between atoms: C_21  and  C_25
REMARK    6  A    between atoms: C_22  and  C_27
REMARK                            x       y       z     vdW  Elec       q    Type
REMARK                         _______ _______ _______ _____ _____    ______ ____
ROOT
ATOM      1  O   UNL     1     112.027 128.803 138.036  0.00  0.00    +0.000 OA
ENDROOT
BRANCH   1   6
ATOM      2  O   UNL     1     113.843 129.983 138.304  0.00  0.00    +0.000 OA
ATOM      3  O   UNL     1     112.046 128.977 139.677  0.00  0.00    +0.000 OA
ATOM      4  O   UNL     1     112.650 129.480 140.886  0.00  0.00    +0.000 OA
ATOM      5  O   UNL     1     115.118 131.030 140.704  0.00  0.00    +0.000 OA
ATOM      6  C   UNL     1     112.636 129.225 138.398  0.00  0.00    +0.000 A 
ATOM      7  C   UNL     1     113.235 129.561 137.940  0.00  0.00    +0.000 A 
ATOM      8  C   UNL     1     112.645 129.312 139.219  0.00  0.00    +0.000 A 
ATOM      9  C   UNL     1     113.254 129.735 139.581  0.00  0.00    +0.000 A 
ATOM     10  C   UNL     1     113.853 130.070 139.124  0.00  0.00    +0.000 A 
ATOM     11  C   UNL     1     113.253 129.819 140.437  0.00  0.00    +0.000 A 
ATOM     12  C   UNL     1     114.493 130.513 139.490  0.00  0.00    +0.000 A 
ATOM     13  C   UNL     1     113.884 130.258 140.820  0.00  0.00    +0.000 A 
ATOM     14  C   UNL     1     114.508 130.607 140.344  0.00  0.00    +0.000 A 
BRANCH   7  16
ATOM     15  O   UNL     1     113.196 129.211 134.659  0.00  0.00    +0.000 OA
ATOM     16  C   UNL     1     113.225 129.473 137.121  0.00  0.00    +0.000 A 
ATOM     17  C   UNL     1     112.913 130.071 136.645  0.00  0.00    +0.000 A 
ATOM     18  C   UNL     1     113.527 128.788 136.775  0.00  0.00    +0.000 A 
ATOM     19  C   UNL     1     112.903 129.984 135.826  0.00  0.00    +0.000 A 
ATOM     20  C   UNL     1     113.517 128.700 135.954  0.00  0.00    +0.000 A 
ATOM     21  C   UNL     1     113.205 129.299 135.480  0.00  0.00    +0.000 A 
ENDBRANCH   7  16
ENDBRANCH   1   6
BRANCH   1  28
ATOM     22  O   UNL     1     111.057 129.832 138.239  0.00  0.00    +0.000 OA
ATOM     23  O   UNL     1     109.260 128.131 138.279  0.00  0.00    +0.000 OA
ATOM     24  O   UNL     1     108.889 129.727 138.469  0.00  0.00    +0.000 OA
ATOM     25  C   UNL     1     110.644 128.466 138.158  0.00  0.00    +0.000 C 
ATOM     26  C   UNL     1     109.859 128.697 138.266  0.00  0.00    +0.000 C 
ATOM     27  C   UNL     1     109.673 129.496 138.361  0.00  0.00    +0.000 C 
ATOM     28  C   UNL     1     111.242 129.034 138.144  0.00  0.00    +0.000 C 
ATOM     29  C   UNL     1     110.273 130.063 138.347  0.00  0.00    +0.000 C 
BRANCH  25  30
ATOM     30  O   UNL     1     110.829 127.669 138.063  0.00  0.00    +0.000 OA
BRANCH  30  32
ATOM     31  O   UNL     1     110.182 127.668 136.789  0.00  0.00    +0.000 OA
ATOM     32  C   UNL     1     110.617 127.274 137.369  0.00  0.00    +0.000 C 
BRANCH  32  36
ATOM     33  O   UNL     1     111.308 125.125 135.617  0.00  0.00    +0.000 OA
ATOM     34  O   UNL     1     111.259 124.705 138.443  0.00  0.00    +0.000 OA
ATOM     35  O   UNL     1     111.506 124.129 136.917  0.00  0.00    +0.000 OA
ATOM     36  C   UNL     1     110.839 126.489 137.257  0.00  0.00    +0.000 A 
ATOM     37  C   UNL     1     110.938 125.990 137.906  0.00  0.00    +0.000 A 
ATOM     38  C   UNL     1     110.962 126.201 136.493  0.00  0.00    +0.000 A 
ATOM     39  C   UNL     1     111.185 125.413 136.380  0.00  0.00    +0.000 A 
ATOM     40  C   UNL     1     111.160 125.204 137.794  0.00  0.00    +0.000 A 
ATOM     41  C   UNL     1     111.283 124.916 137.030  0.00  0.00    +0.000 A 
ENDBRANCH  32  36
ENDBRANCH  30  32
ENDBRANCH  25  30
ENDBRANCH   1  28
TORSDOF 6
ENDMDL
