MODEL 1
REMARK VINA RESULT:      -7.5      0.000      0.000
REMARK  Name = 
REMARK  8 active torsions:
REMARK  status: ('A' for Active; 'I' for Inactive)
REMARK    1  A    between atoms: C_4  and  O_19
REMARK    2  A    between atoms: C_5  and  C_8
REMARK    3  A    between atoms: C_9  and  O_22
REMARK    4  A    between atoms: C_10  and  O_20
REMARK    5  A    between atoms: C_11  and  O_23
REMARK    6  A    between atoms: C_12  and  O_17
REMARK    7  A    between atoms: O_20  and  C_21
REMARK    8  A    between atoms: C_21  and  C_30
REMARK                            x       y       z     vdW  Elec       q    Type
REMARK                         _______ _______ _______ _____ _____    ______ ____
ROOT
ATOM      1  C   UNL     1     111.503 129.871 137.884  0.00  0.00    +0.000 A 
ATOM      2  C   UNL     1     110.960 129.278 137.275  0.00  0.00    +0.000 A 
ATOM      3  C   UNL     1     111.332 130.834 137.934  0.00  0.00    +0.000 A 
ATOM      4  C   UNL     1     110.604 131.263 137.374  0.00  0.00    +0.000 A 
ATOM      5  C   UNL     1     110.041 130.677 136.748  0.00  0.00    +0.000 A 
ATOM      6  O   UNL     1     110.228 129.674 136.704  0.00  0.00    +0.000 OA
ATOM      7  C   UNL     1     111.131 128.314 137.224  0.00  0.00    +0.000 A 
ATOM      8  C   UNL     1     111.864 127.887 137.788  0.00  0.00    +0.000 A 
ATOM      9  C   UNL     1     112.426 128.491 138.417  0.00  0.00    +0.000 A 
ATOM     10  C   UNL     1     112.245 129.460 138.459  0.00  0.00    +0.000 A 
ATOM     11  O   UNL     1     111.881 131.419 138.546  0.00  0.00    +0.000 OA
ENDROOT
BRANCH   5  13
ATOM     12  C   UNL     1     108.362 131.001 136.539  0.00  0.00    +0.000 A 
ATOM     13  C   UNL     1     109.311 131.084 136.183  0.00  0.00    +0.000 A 
ATOM     14  C   UNL     1     107.597 131.426 135.950  0.00  0.00    +0.000 A 
ATOM     15  C   UNL     1     107.847 131.898 135.055  0.00  0.00    +0.000 A 
ATOM     16  C   UNL     1     108.806 131.946 134.761  0.00  0.00    +0.000 A 
ATOM     17  C   UNL     1     109.506 131.553 135.308  0.00  0.00    +0.000 A 
ATOM     18  O   UNL     1     106.564 131.487 136.067  0.00  0.00    +0.000 OA
ATOM     19  C   UNL     1     106.175 131.996 135.246  0.00  0.00    +0.000 C 
ATOM     20  O   UNL     1     106.951 132.254 134.618  0.00  0.00    +0.000 OA
ENDBRANCH   5  13
BRANCH  10  21
ATOM     21  O   UNL     1     112.794 130.046 139.072  0.00  0.00    +0.000 OA
ATOM     22  C   UNL     1     113.750 130.265 138.837  0.00  0.00    +0.000 C 
ENDBRANCH  10  21
BRANCH   4  23
ATOM     23  O   UNL     1     110.423 132.254 137.421  0.00  0.00    +0.000 OA
ATOM     24  C   UNL     1     110.286 132.640 138.198  0.00  0.00    +0.000 C 
ENDBRANCH   4  23
BRANCH   7  25
ATOM     25  O   UNL     1     110.582 127.730 136.612  0.00  0.00    +0.000 OA
ATOM     26  C   UNL     1     109.683 127.386 136.915  0.00  0.00    +0.000 C 
ENDBRANCH   7  25
BRANCH   9  27
ATOM     27  O   UNL     1     113.156 128.083 138.982  0.00  0.00    +0.000 OA
ATOM     28  C   UNL     1     112.945 127.736 139.905  0.00  0.00    +0.000 C 
ENDBRANCH   9  27
BRANCH   8  29
ATOM     29  O   UNL     1     112.045 126.896 137.742  0.00  0.00    +0.000 OA
BRANCH  29  30
ATOM     30  C   UNL     1     112.766 126.543 137.134  0.00  0.00    +0.000 C 
BRANCH  30  31
ATOM     31  C   UNL     1     112.846 125.614 136.983  0.00  0.00    +0.000 C 
ATOM     32  C   UNL     1     113.635 125.264 136.672  0.00  0.00    +0.000 C 
ATOM     33  C   UNL     1     113.708 124.405 136.533  0.00  0.00    +0.000 C 
ATOM     34  C   UNL     1     114.338 125.810 136.509  0.00  0.00    +0.000 C 
ENDBRANCH  30  31
ENDBRANCH  29  30
ENDBRANCH   8  29
TORSDOF 8
ENDMDL
MODEL 2
REMARK VINA RESULT:      -7.3      1.797      2.335
REMARK  Name = 
REMARK  8 active torsions:
REMARK  status: ('A' for Active; 'I' for Inactive)
REMARK    1  A    between atoms: C_4  and  O_19
REMARK    2  A    between atoms: C_5  and  C_8
REMARK    3  A    between atoms: C_9  and  O_22
REMARK    4  A    between atoms: C_10  and  O_20
REMARK    5  A    between atoms: C_11  and  O_23
REMARK    6  A    between atoms: C_12  and  O_17
REMARK    7  A    between atoms: O_20  and  C_21
REMARK    8  A    between atoms: C_21  and  C_30
REMARK                            x       y       z     vdW  Elec       q    Type
REMARK                         _______ _______ _______ _____ _____    ______ ____
ROOT
ATOM      1  C   UNL     1     110.722 128.521 139.268  0.00  0.00    +0.000 A 
ATOM      2  C   UNL     1     111.272 128.709 138.443  0.00  0.00    +0.000 A 
ATOM      3  C   UNL     1     109.891 129.010 139.443  0.00  0.00    +0.000 A 
ATOM      4  C   UNL     1     109.560 129.719 138.799  0.00  0.00    +0.000 A 
ATOM      5  C   UNL     1     110.105 129.925 137.954  0.00  0.00    +0.000 A 
ATOM      6  O   UNL     1     110.969 129.409 137.782  0.00  0.00    +0.000 OA
ATOM      7  C   UNL     1     112.103 128.220 138.268  0.00  0.00    +0.000 A 
ATOM      8  C   UNL     1     112.432 127.508 138.918  0.00  0.00    +0.000 A 
ATOM      9  C   UNL     1     111.872 127.310 139.768  0.00  0.00    +0.000 A 
ATOM     10  C   UNL     1     111.037 127.809 139.934  0.00  0.00    +0.000 A 
ATOM     11  O   UNL     1     109.349 128.815 140.271  0.00  0.00    +0.000 OA
ENDROOT
BRANCH   5  13
ATOM     12  C   UNL     1     109.125 130.324 136.595  0.00  0.00    +0.000 A 
ATOM     13  C   UNL     1     109.792 130.627 137.301  0.00  0.00    +0.000 A 
ATOM     14  C   UNL     1     108.796 131.056 135.910  0.00  0.00    +0.000 A 
ATOM     15  C   UNL     1     109.163 132.028 135.990  0.00  0.00    +0.000 A 
ATOM     16  C   UNL     1     109.822 132.261 136.712  0.00  0.00    +0.000 A 
ATOM     17  C   UNL     1     110.120 131.583 137.339  0.00  0.00    +0.000 A 
ATOM     18  O   UNL     1     108.135 131.028 135.106  0.00  0.00    +0.000 OA
ATOM     19  C   UNL     1     108.092 131.981 134.689  0.00  0.00    +0.000 C 
ATOM     20  O   UNL     1     108.718 132.604 135.222  0.00  0.00    +0.000 OA
ENDBRANCH   5  13
BRANCH  10  21
ATOM     21  O   UNL     1     110.494 127.614 140.763  0.00  0.00    +0.000 OA
ATOM     22  C   UNL     1     109.987 126.745 140.841  0.00  0.00    +0.000 C 
ENDBRANCH  10  21
BRANCH   4  23
ATOM     23  O   UNL     1     108.706 130.226 138.973  0.00  0.00    +0.000 OA
ATOM     24  C   UNL     1     108.566 130.598 139.757  0.00  0.00    +0.000 C 
ENDBRANCH   4  23
BRANCH   7  25
ATOM     25  O   UNL     1     112.645 128.415 137.440  0.00  0.00    +0.000 OA
ATOM     26  C   UNL     1     113.281 129.198 137.427  0.00  0.00    +0.000 C 
ENDBRANCH   7  25
BRANCH   9  27
ATOM     27  O   UNL     1     112.185 126.607 140.422  0.00  0.00    +0.000 OA
ATOM     28  C   UNL     1     112.808 126.859 141.173  0.00  0.00    +0.000 C 
ENDBRANCH   9  27
BRANCH   8  29
ATOM     29  O   UNL     1     113.286 127.000 138.744  0.00  0.00    +0.000 OA
BRANCH  29  30
ATOM     30  C   UNL     1     113.268 126.151 138.205  0.00  0.00    +0.000 C 
BRANCH  30  31
ATOM     31  C   UNL     1     114.074 125.703 137.997  0.00  0.00    +0.000 C 
ATOM     32  C   UNL     1     114.072 125.005 137.401  0.00  0.00    +0.000 C 
ATOM     33  C   UNL     1     114.818 124.592 137.210  0.00  0.00    +0.000 C 
ATOM     34  C   UNL     1     113.299 124.746 137.012  0.00  0.00    +0.000 C 
ENDBRANCH  30  31
ENDBRANCH  29  30
ENDBRANCH   8  29
TORSDOF 8
ENDMDL
MODEL 3
REMARK VINA RESULT:      -7.0      2.555      3.442
REMARK  Name = 
REMARK  8 active torsions:
REMARK  status: ('A' for Active; 'I' for Inactive)
REMARK    1  A    between atoms: C_4  and  O_19
REMARK    2  A    between atoms: C_5  and  C_8
REMARK    3  A    between atoms: C_9  and  O_22
REMARK    4  A    between atoms: C_10  and  O_20
REMARK    5  A    between atoms: C_11  and  O_23
REMARK    6  A    between atoms: C_12  and  O_17
REMARK    7  A    between atoms: O_20  and  C_21
REMARK    8  A    between atoms: C_21  and  C_30
REMARK                            x       y       z     vdW  Elec       q    Type
REMARK                         _______ _______ _______ _____ _____    ______ ____
ROOT
ATOM      1  C   UNL     1     111.769 130.059 137.697  0.00  0.00    +0.000 A 
ATOM      2  C   UNL     1     111.422 129.234 138.163  0.00  0.00    +0.000 A 
ATOM      3  C   UNL     1     111.500 130.954 137.990  0.00  0.00    +0.000 A 
ATOM      4  C   UNL     1     110.867 131.077 138.770  0.00  0.00    +0.000 A 
ATOM      5  C   UNL     1     110.503 130.251 139.258  0.00  0.00    +0.000 A 
ATOM      6  O   UNL     1     110.789 129.323 138.944  0.00  0.00    +0.000 OA
ATOM      7  C   UNL     1     111.690 128.338 137.870  0.00  0.00    +0.000 A 
ATOM      8  C   UNL     1     112.328 128.218 137.084  0.00  0.00    +0.000 A 
ATOM      9  C   UNL     1     112.688 129.061 136.600  0.00  0.00    +0.000 A 
ATOM     10  C   UNL     1     112.411 129.959 136.904  0.00  0.00    +0.000 A 
ATOM     11  O   UNL     1     111.853 131.772 137.517  0.00  0.00    +0.000 OA
ENDROOT
BRANCH   5  13
ATOM     12  C   UNL     1     108.881 130.225 139.838  0.00  0.00    +0.000 A 
ATOM     13  C   UNL     1     109.870 130.353 140.038  0.00  0.00    +0.000 A 
ATOM     14  C   UNL     1     108.218 130.331 140.652  0.00  0.00    +0.000 A 
ATOM     15  C   UNL     1     108.601 130.555 141.595  0.00  0.00    +0.000 A 
ATOM     16  C   UNL     1     109.591 130.668 141.723  0.00  0.00    +0.000 A 
ATOM     17  C   UNL     1     110.196 130.569 140.971  0.00  0.00    +0.000 A 
ATOM     18  O   UNL     1     107.182 130.256 140.735  0.00  0.00    +0.000 OA
ATOM     19  C   UNL     1     106.924 130.434 141.729  0.00  0.00    +0.000 C 
ATOM     20  O   UNL     1     107.785 130.618 142.266  0.00  0.00    +0.000 OA
ENDBRANCH   5  13
BRANCH  10  21
ATOM     21  O   UNL     1     112.764 130.779 136.431  0.00  0.00    +0.000 OA
ATOM     22  C   UNL     1     113.716 131.077 136.581  0.00  0.00    +0.000 C 
ENDBRANCH  10  21
BRANCH   4  23
ATOM     23  O   UNL     1     110.586 131.996 139.077  0.00  0.00    +0.000 OA
ATOM     24  C   UNL     1     110.267 132.575 138.499  0.00  0.00    +0.000 C 
ENDBRANCH   4  23
BRANCH   7  25
ATOM     25  O   UNL     1     111.338 127.519 138.343  0.00  0.00    +0.000 OA
ATOM     26  C   UNL     1     110.432 127.147 138.099  0.00  0.00    +0.000 C 
ENDBRANCH   7  25
BRANCH   9  27
ATOM     27  O   UNL     1     113.320 128.960 135.821  0.00  0.00    +0.000 OA
ATOM     28  C   UNL     1     112.963 128.962 134.878  0.00  0.00    +0.000 C 
ENDBRANCH   9  27
BRANCH   8  29
ATOM     29  O   UNL     1     112.608 127.299 136.777  0.00  0.00    +0.000 OA
BRANCH  29  30
ATOM     30  C   UNL     1     113.380 126.832 137.223  0.00  0.00    +0.000 C 
BRANCH  30  31
ATOM     31  C   UNL     1     113.695 126.008 136.884  0.00  0.00    +0.000 C 
ATOM     32  C   UNL     1     114.218 125.465 137.408  0.00  0.00    +0.000 C 
ATOM     33  C   UNL     1     114.509 124.703 137.094  0.00  0.00    +0.000 C 
ATOM     34  C   UNL     1     114.432 125.718 138.249  0.00  0.00    +0.000 C 
ENDBRANCH  30  31
ENDBRANCH  29  30
ENDBRANCH   8  29
TORSDOF 8
ENDMDL
MODEL 4
REMARK VINA RESULT:      -7.0      1.750      3.841
REMARK  Name = 
REMARK  8 active torsions:
REMARK  status: ('A' for Active; 'I' for Inactive)
REMARK    1  A    between atoms: C_4  and  O_19
REMARK    2  A    between atoms: C_5  and  C_8
REMARK    3  A    between atoms: C_9  and  O_22
REMARK    4  A    between atoms: C_10  and  O_20
REMARK    5  A    between atoms: C_11  and  O_23
REMARK    6  A    between atoms: C_12  and  O_17
REMARK    7  A    between atoms: O_20  and  C_21
REMARK    8  A    between atoms: C_21  and  C_30
REMARK                            x       y       z     vdW  Elec       q    Type
REMARK                         _______ _______ _______ _____ _____    ______ ____
ROOT
ATOM      1  C   UNL     1     111.716 126.576 136.433  0.00  0.00    +0.000 A 
ATOM      2  C   UNL     1     111.896 127.468 136.870  0.00  0.00    +0.000 A 
ATOM      3  C   UNL     1     111.005 126.475 135.768  0.00  0.00    +0.000 A 
ATOM      4  C   UNL     1     110.428 127.263 135.499  0.00  0.00    +0.000 A 
ATOM      5  C   UNL     1     110.595 128.179 135.931  0.00  0.00    +0.000 A 
ATOM      6  O   UNL     1     111.340 128.273 136.623  0.00  0.00    +0.000 OA
ATOM      7  C   UNL     1     112.608 127.570 137.535  0.00  0.00    +0.000 A 
ATOM      8  C   UNL     1     113.186 126.775 137.803  0.00  0.00    +0.000 A 
ATOM      9  C   UNL     1     113.007 125.855 137.359  0.00  0.00    +0.000 A 
ATOM     10  C   UNL     1     112.286 125.764 136.689  0.00  0.00    +0.000 A 
ATOM     11  O   UNL     1     110.833 125.578 135.338  0.00  0.00    +0.000 OA
ENDROOT
BRANCH   5  13
ATOM     12  C   UNL     1     109.231 129.173 136.271  0.00  0.00    +0.000 A 
ATOM     13  C   UNL     1     110.032 128.976 135.676  0.00  0.00    +0.000 A 
ATOM     14  C   UNL     1     108.640 130.007 136.007  0.00  0.00    +0.000 A 
ATOM     15  C   UNL     1     108.902 130.571 135.171  0.00  0.00    +0.000 A 
ATOM     16  C   UNL     1     109.707 130.322 134.627  0.00  0.00    +0.000 A 
ATOM     17  C   UNL     1     110.247 129.554 134.874  0.00  0.00    +0.000 A 
ATOM     18  O   UNL     1     107.784 130.429 136.425  0.00  0.00    +0.000 OA
ATOM     19  C   UNL     1     107.517 131.255 135.849  0.00  0.00    +0.000 C 
ATOM     20  O   UNL     1     108.194 131.353 135.077  0.00  0.00    +0.000 OA
ENDBRANCH   5  13
BRANCH  10  21
ATOM     21  O   UNL     1     112.114 124.867 136.259  0.00  0.00    +0.000 OA
ATOM     22  C   UNL     1     111.764 124.100 136.813  0.00  0.00    +0.000 C 
ENDBRANCH  10  21
BRANCH   4  23
ATOM     23  O   UNL     1     109.694 127.165 134.815  0.00  0.00    +0.000 OA
ATOM     24  C   UNL     1     109.185 126.449 134.815  0.00  0.00    +0.000 C 
ENDBRANCH   4  23
BRANCH   7  25
ATOM     25  O   UNL     1     112.780 128.467 137.965  0.00  0.00    +0.000 OA
ATOM     26  C   UNL     1     113.243 129.196 137.444  0.00  0.00    +0.000 C 
ENDBRANCH   7  25
BRANCH   9  27
ATOM     27  O   UNL     1     113.570 125.057 137.613  0.00  0.00    +0.000 OA
ATOM     28  C   UNL     1     114.435 124.875 137.129  0.00  0.00    +0.000 C 
ENDBRANCH   9  27
BRANCH   8  29
ATOM     29  O   UNL     1     113.920 126.873 138.487  0.00  0.00    +0.000 OA
BRANCH  29  30
ATOM     30  C   UNL     1     113.698 126.874 139.469  0.00  0.00    +0.000 C 
BRANCH  30  31
ATOM     31  C   UNL     1     114.390 126.824 140.112  0.00  0.00    +0.000 C 
ATOM     32  C   UNL     1     114.197 126.926 141.003  0.00  0.00    +0.000 C 
ATOM     33  C   UNL     1     114.837 126.879 141.597  0.00  0.00    +0.000 C 
ATOM     34  C   UNL     1     113.345 127.073 141.268  0.00  0.00    +0.000 C 
ENDBRANCH  30  31
ENDBRANCH  29  30
ENDBRANCH   8  29
TORSDOF 8
ENDMDL
MODEL 5
REMARK VINA RESULT:      -6.9      7.978      9.492
REMARK  Name = 
REMARK  8 active torsions:
REMARK  status: ('A' for Active; 'I' for Inactive)
REMARK    1  A    between atoms: C_4  and  O_19
REMARK    2  A    between atoms: C_5  and  C_8
REMARK    3  A    between atoms: C_9  and  O_22
REMARK    4  A    between atoms: C_10  and  O_20
REMARK    5  A    between atoms: C_11  and  O_23
REMARK    6  A    between atoms: C_12  and  O_17
REMARK    7  A    between atoms: O_20  and  C_21
REMARK    8  A    between atoms: C_21  and  C_30
REMARK                            x       y       z     vdW  Elec       q    Type
REMARK                         _______ _______ _______ _____ _____    ______ ____
ROOT
ATOM      1  C   UNL     1     104.370 128.838 142.091  0.00  0.00    +0.000 A 
ATOM      2  C   UNL     1     104.243 129.426 142.901  0.00  0.00    +0.000 A 
ATOM      3  C   UNL     1     103.888 129.015 141.258  0.00  0.00    +0.000 A 
ATOM      4  C   UNL     1     103.246 129.796 141.185  0.00  0.00    +0.000 A 
ATOM      5  C   UNL     1     103.102 130.406 141.997  0.00  0.00    +0.000 A 
ATOM      6  O   UNL     1     103.611 130.212 142.861  0.00  0.00    +0.000 OA
ATOM      7  C   UNL     1     104.726 129.249 143.735  0.00  0.00    +0.000 A 
ATOM      8  C   UNL     1     105.371 128.463 143.804  0.00  0.00    +0.000 A 
ATOM      9  C   UNL     1     105.507 127.854 142.976  0.00  0.00    +0.000 A 
ATOM     10  C   UNL     1     105.014 128.042 142.141  0.00  0.00    +0.000 A 
ATOM     11  O   UNL     1     104.022 128.421 140.454  0.00  0.00    +0.000 OA
ENDROOT
BRANCH   5  13
ATOM     12  C   UNL     1     102.867 132.076 141.648  0.00  0.00    +0.000 A 
ATOM     13  C   UNL     1     102.468 131.189 141.944  0.00  0.00    +0.000 A 
ATOM     14  C   UNL     1     102.205 132.897 141.592  0.00  0.00    +0.000 A 
ATOM     15  C   UNL     1     101.201 132.758 141.838  0.00  0.00    +0.000 A 
ATOM     16  C   UNL     1     100.873 131.853 142.124  0.00  0.00    +0.000 A 
ATOM     17  C   UNL     1     101.486 131.103 142.173  0.00  0.00    +0.000 A 
ATOM     18  O   UNL     1     102.336 133.895 141.326  0.00  0.00    +0.000 OA
ATOM     19  C   UNL     1     101.414 134.374 141.407  0.00  0.00    +0.000 C 
ATOM     20  O   UNL     1     100.710 133.688 141.720  0.00  0.00    +0.000 OA
ENDBRANCH   5  13
BRANCH  10  21
ATOM     21  O   UNL     1     105.149 127.447 141.336  0.00  0.00    +0.000 OA
ATOM     22  C   UNL     1     104.938 126.462 141.397  0.00  0.00    +0.000 C 
ENDBRANCH  10  21
BRANCH   4  23
ATOM     23  O   UNL     1     102.745 129.984 140.329  0.00  0.00    +0.000 OA
ATOM     24  C   UNL     1     102.381 129.324 139.879  0.00  0.00    +0.000 C 
ENDBRANCH   4  23
BRANCH   7  25
ATOM     25  O   UNL     1     104.592 129.844 144.539  0.00  0.00    +0.000 OA
ATOM     26  C   UNL     1     105.104 130.710 144.617  0.00  0.00    +0.000 C 
ENDBRANCH   7  25
BRANCH   9  27
ATOM     27  O   UNL     1     106.141 127.071 143.029  0.00  0.00    +0.000 OA
ATOM     28  C   UNL     1     107.118 127.199 142.814  0.00  0.00    +0.000 C 
ENDBRANCH   9  27
BRANCH   8  29
ATOM     29  O   UNL     1     105.871 128.275 144.660  0.00  0.00    +0.000 OA
BRANCH  29  30
ATOM     30  C   UNL     1     105.471 127.666 145.354  0.00  0.00    +0.000 C 
BRANCH  30  31
ATOM     31  C   UNL     1     105.914 127.532 146.179  0.00  0.00    +0.000 C 
ATOM     32  C   UNL     1     105.598 126.910 146.774  0.00  0.00    +0.000 C 
ATOM     33  C   UNL     1     106.007 126.787 147.537  0.00  0.00    +0.000 C 
ATOM     34  C   UNL     1     104.863 126.423 146.573  0.00  0.00    +0.000 C 
ENDBRANCH  30  31
ENDBRANCH  29  30
ENDBRANCH   8  29
TORSDOF 8
ENDMDL
MODEL 6
REMARK VINA RESULT:      -6.9      3.326      5.313
REMARK  Name = 
REMARK  8 active torsions:
REMARK  status: ('A' for Active; 'I' for Inactive)
REMARK    1  A    between atoms: C_4  and  O_19
REMARK    2  A    between atoms: C_5  and  C_8
REMARK    3  A    between atoms: C_9  and  O_22
REMARK    4  A    between atoms: C_10  and  O_20
REMARK    5  A    between atoms: C_11  and  O_23
REMARK    6  A    between atoms: C_12  and  O_17
REMARK    7  A    between atoms: O_20  and  C_21
REMARK    8  A    between atoms: C_21  and  C_30
REMARK                            x       y       z     vdW  Elec       q    Type
REMARK                         _______ _______ _______ _____ _____    ______ ____
ROOT
ATOM      1  C   UNL     1     110.637 128.087 139.337  0.00  0.00    +0.000 A 
ATOM      2  C   UNL     1     111.588 128.408 139.439  0.00  0.00    +0.000 A 
ATOM      3  C   UNL     1     109.955 128.312 140.003  0.00  0.00    +0.000 A 
ATOM      4  C   UNL     1     110.185 128.873 140.814  0.00  0.00    +0.000 A 
ATOM      5  C   UNL     1     111.146 129.210 140.937  0.00  0.00    +0.000 A 
ATOM      6  O   UNL     1     111.849 128.969 140.236  0.00  0.00    +0.000 OA
ATOM      7  C   UNL     1     112.271 128.184 138.774  0.00  0.00    +0.000 A 
ATOM      8  C   UNL     1     112.036 127.619 137.959  0.00  0.00    +0.000 A 
ATOM      9  C   UNL     1     111.060 127.285 137.847  0.00  0.00    +0.000 A 
ATOM     10  C   UNL     1     110.380 127.517 138.525  0.00  0.00    +0.000 A 
ATOM     11  O   UNL     1     109.007 127.985 139.892  0.00  0.00    +0.000 OA
ENDROOT
BRANCH   5  13
ATOM     12  C   UNL     1     111.321 130.778 141.625  0.00  0.00    +0.000 A 
ATOM     13  C   UNL     1     111.396 129.770 141.737  0.00  0.00    +0.000 A 
ATOM     14  C   UNL     1     111.581 131.367 142.462  0.00  0.00    +0.000 A 
ATOM     15  C   UNL     1     111.893 130.897 143.338  0.00  0.00    +0.000 A 
ATOM     16  C   UNL     1     111.944 129.895 143.381  0.00  0.00    +0.000 A 
ATOM     17  C   UNL     1     111.704 129.358 142.609  0.00  0.00    +0.000 A 
ATOM     18  O   UNL     1     111.599 132.396 142.625  0.00  0.00    +0.000 OA
ATOM     19  C   UNL     1     111.922 132.562 143.602  0.00  0.00    +0.000 C 
ATOM     20  O   UNL     1     112.106 131.651 144.049  0.00  0.00    +0.000 OA
ENDBRANCH   5  13
BRANCH  10  21
ATOM     21  O   UNL     1     109.431 127.191 138.413  0.00  0.00    +0.000 OA
ATOM     22  C   UNL     1     109.209 126.220 138.577  0.00  0.00    +0.000 C 
ENDBRANCH  10  21
BRANCH   4  23
ATOM     23  O   UNL     1     109.487 129.108 141.503  0.00  0.00    +0.000 OA
ATOM     24  C   UNL     1     108.891 128.510 141.747  0.00  0.00    +0.000 C 
ENDBRANCH   4  23
BRANCH   7  25
ATOM     25  O   UNL     1     113.220 128.510 138.885  0.00  0.00    +0.000 OA
ATOM     26  C   UNL     1     113.469 129.444 138.597  0.00  0.00    +0.000 C 
ENDBRANCH   7  25
BRANCH   9  27
ATOM     27  O   UNL     1     110.811 126.724 137.047  0.00  0.00    +0.000 OA
ATOM     28  C   UNL     1     110.482 127.167 136.203  0.00  0.00    +0.000 C 
ENDBRANCH   9  27
BRANCH   8  29
ATOM     29  O   UNL     1     112.734 127.384 137.270  0.00  0.00    +0.000 OA
BRANCH  29  30
ATOM     30  C   UNL     1     113.298 126.558 137.385  0.00  0.00    +0.000 C 
BRANCH  30  31
ATOM     31  C   UNL     1     113.895 126.293 136.701  0.00  0.00    +0.000 C 
ATOM     32  C   UNL     1     114.426 125.554 136.816  0.00  0.00    +0.000 C 
ATOM     33  C   UNL     1     114.978 125.309 136.183  0.00  0.00    +0.000 C 
ATOM     34  C   UNL     1     114.379 125.078 137.583  0.00  0.00    +0.000 C 
ENDBRANCH  30  31
ENDBRANCH  29  30
ENDBRANCH   8  29
TORSDOF 8
ENDMDL
MODEL 7
REMARK VINA RESULT:      -6.9      2.444      4.272
REMARK  Name = 
REMARK  8 active torsions:
REMARK  status: ('A' for Active; 'I' for Inactive)
REMARK    1  A    between atoms: C_4  and  O_19
REMARK    2  A    between atoms: C_5  and  C_8
REMARK    3  A    between atoms: C_9  and  O_22
REMARK    4  A    between atoms: C_10  and  O_20
REMARK    5  A    between atoms: C_11  and  O_23
REMARK    6  A    between atoms: C_12  and  O_17
REMARK    7  A    between atoms: O_20  and  C_21
REMARK    8  A    between atoms: C_21  and  C_30
REMARK                            x       y       z     vdW  Elec       q    Type
REMARK                         _______ _______ _______ _____ _____    ______ ____
ROOT
ATOM      1  C   UNL     1     111.184 129.007 137.130  0.00  0.00    +0.000 A 
ATOM      2  C   UNL     1     111.003 128.422 137.932  0.00  0.00    +0.000 A 
ATOM      3  C   UNL     1     111.286 129.976 137.226  0.00  0.00    +0.000 A 
ATOM      4  C   UNL     1     111.213 130.419 138.134  0.00  0.00    +0.000 A 
ATOM      5  C   UNL     1     111.029 129.842 138.962  0.00  0.00    +0.000 A 
ATOM      6  O   UNL     1     110.924 128.833 138.850  0.00  0.00    +0.000 OA
ATOM      7  C   UNL     1     110.900 127.452 137.836  0.00  0.00    +0.000 A 
ATOM      8  C   UNL     1     110.974 127.011 136.921  0.00  0.00    +0.000 A 
ATOM      9  C   UNL     1     111.160 127.606 136.092  0.00  0.00    +0.000 A 
ATOM     10  C   UNL     1     111.262 128.582 136.201  0.00  0.00    +0.000 A 
ATOM     11  O   UNL     1     111.467 130.553 136.418  0.00  0.00    +0.000 OA
ENDROOT
BRANCH   5  13
ATOM     12  C   UNL     1     111.821 130.383 140.393  0.00  0.00    +0.000 A 
ATOM     13  C   UNL     1     110.953 130.264 139.876  0.00  0.00    +0.000 A 
ATOM     14  C   UNL     1     111.744 130.825 141.349  0.00  0.00    +0.000 A 
ATOM     15  C   UNL     1     110.806 131.108 141.704  0.00  0.00    +0.000 A 
ATOM     16  C   UNL     1     109.988 130.961 141.140  0.00  0.00    +0.000 A 
ATOM     17  C   UNL     1     110.065 130.555 140.262  0.00  0.00    +0.000 A 
ATOM     18  O   UNL     1     112.449 131.061 142.078  0.00  0.00    +0.000 OA
ATOM     19  C   UNL     1     111.948 131.491 142.884  0.00  0.00    +0.000 C 
ATOM     20  O   UNL     1     110.940 131.525 142.668  0.00  0.00    +0.000 OA
ENDBRANCH   5  13
BRANCH  10  21
ATOM     21  O   UNL     1     111.442 129.159 135.392  0.00  0.00    +0.000 OA
ATOM     22  C   UNL     1     112.342 129.121 134.937  0.00  0.00    +0.000 C 
ENDBRANCH  10  21
BRANCH   4  23
ATOM     23  O   UNL     1     111.317 131.417 138.240  0.00  0.00    +0.000 OA
ATOM     24  C   UNL     1     110.946 131.963 137.660  0.00  0.00    +0.000 C 
ENDBRANCH   4  23
BRANCH   7  25
ATOM     25  O   UNL     1     110.719 126.876 138.644  0.00  0.00    +0.000 OA
ATOM     26  C   UNL     1     109.776 126.769 138.987  0.00  0.00    +0.000 C 
ENDBRANCH   7  25
BRANCH   9  27
ATOM     27  O   UNL     1     111.236 127.184 135.179  0.00  0.00    +0.000 OA
ATOM     28  C   UNL     1     110.411 127.048 134.616  0.00  0.00    +0.000 C 
ENDBRANCH   9  27
BRANCH   8  29
ATOM     29  O   UNL     1     110.870 126.013 136.815  0.00  0.00    +0.000 OA
BRANCH  29  30
ATOM     30  C   UNL     1     111.681 125.416 136.831  0.00  0.00    +0.000 C 
BRANCH  30  31
ATOM     31  C   UNL     1     111.578 124.479 136.897  0.00  0.00    +0.000 C 
ATOM     32  C   UNL     1     112.318 123.936 136.917  0.00  0.00    +0.000 C 
ATOM     33  C   UNL     1     112.223 123.069 136.979  0.00  0.00    +0.000 C 
ATOM     34  C   UNL     1     113.145 124.298 136.874  0.00  0.00    +0.000 C 
ENDBRANCH  30  31
ENDBRANCH  29  30
ENDBRANCH   8  29
TORSDOF 8
ENDMDL
MODEL 8
REMARK VINA RESULT:      -6.9      8.264      9.755
REMARK  Name = 
REMARK  8 active torsions:
REMARK  status: ('A' for Active; 'I' for Inactive)
REMARK    1  A    between atoms: C_4  and  O_19
REMARK    2  A    between atoms: C_5  and  C_8
REMARK    3  A    between atoms: C_9  and  O_22
REMARK    4  A    between atoms: C_10  and  O_20
REMARK    5  A    between atoms: C_11  and  O_23
REMARK    6  A    between atoms: C_12  and  O_17
REMARK    7  A    between atoms: O_20  and  C_21
REMARK    8  A    between atoms: C_21  and  C_30
REMARK                            x       y       z     vdW  Elec       q    Type
REMARK                         _______ _______ _______ _____ _____    ______ ____
ROOT
ATOM      1  C   UNL     1     105.961 125.600 143.948  0.00  0.00    +0.000 A 
ATOM      2  C   UNL     1     106.539 126.287 144.408  0.00  0.00    +0.000 A 
ATOM      3  C   UNL     1     105.904 125.562 142.971  0.00  0.00    +0.000 A 
ATOM      4  C   UNL     1     106.423 126.212 142.394  0.00  0.00    +0.000 A 
ATOM      5  C   UNL     1     107.017 126.919 142.842  0.00  0.00    +0.000 A 
ATOM      6  O   UNL     1     107.069 126.949 143.862  0.00  0.00    +0.000 OA
ATOM      7  C   UNL     1     106.597 126.326 145.386  0.00  0.00    +0.000 A 
ATOM      8  C   UNL     1     106.072 125.670 145.962  0.00  0.00    +0.000 A 
ATOM      9  C   UNL     1     105.476 124.960 145.497  0.00  0.00    +0.000 A 
ATOM     10  C   UNL     1     105.426 124.931 144.511  0.00  0.00    +0.000 A 
ATOM     11  O   UNL     1     105.323 124.870 142.521  0.00  0.00    +0.000 OA
ENDROOT
BRANCH   5  13
ATOM     12  C   UNL     1     107.061 128.432 142.021  0.00  0.00    +0.000 A 
ATOM     13  C   UNL     1     107.542 127.576 142.285  0.00  0.00    +0.000 A 
ATOM     14  C   UNL     1     107.609 129.121 141.438  0.00  0.00    +0.000 A 
ATOM     15  C   UNL     1     108.590 128.894 141.171  0.00  0.00    +0.000 A 
ATOM     16  C   UNL     1     109.006 128.029 141.466  0.00  0.00    +0.000 A 
ATOM     17  C   UNL     1     108.497 127.399 142.002  0.00  0.00    +0.000 A 
ATOM     18  O   UNL     1     107.373 130.052 141.036  0.00  0.00    +0.000 OA
ATOM     19  C   UNL     1     108.208 130.402 140.520  0.00  0.00    +0.000 C 
ATOM     20  O   UNL     1     108.961 129.701 140.595  0.00  0.00    +0.000 OA
ENDBRANCH   5  13
BRANCH  10  21
ATOM     21  O   UNL     1     104.845 124.239 144.060  0.00  0.00    +0.000 OA
ATOM     22  C   UNL     1     105.049 123.257 144.174  0.00  0.00    +0.000 C 
ENDBRANCH  10  21
BRANCH   4  23
ATOM     23  O   UNL     1     106.369 126.178 141.387  0.00  0.00    +0.000 OA
ATOM     24  C   UNL     1     106.098 125.445 140.986  0.00  0.00    +0.000 C 
ENDBRANCH   4  23
BRANCH   7  25
ATOM     25  O   UNL     1     107.177 127.017 145.836  0.00  0.00    +0.000 OA
ATOM     26  C   UNL     1     106.819 127.945 146.003  0.00  0.00    +0.000 C 
ENDBRANCH   7  25
BRANCH   9  27
ATOM     27  O   UNL     1     104.951 124.303 146.054  0.00  0.00    +0.000 OA
ATOM     28  C   UNL     1     104.032 124.547 146.389  0.00  0.00    +0.000 C 
ENDBRANCH   9  27
BRANCH   8  29
ATOM     29  O   UNL     1     106.127 125.703 146.969  0.00  0.00    +0.000 OA
BRANCH  29  30
ATOM     30  C   UNL     1     106.922 125.309 147.444  0.00  0.00    +0.000 C 
BRANCH  30  31
ATOM     31  C   UNL     1     106.836 124.997 148.332  0.00  0.00    +0.000 C 
ATOM     32  C   UNL     1     107.576 124.705 148.790  0.00  0.00    +0.000 C 
ATOM     33  C   UNL     1     107.496 124.416 149.611  0.00  0.00    +0.000 C 
ATOM     34  C   UNL     1     108.388 124.715 148.392  0.00  0.00    +0.000 C 
ENDBRANCH  30  31
ENDBRANCH  29  30
ENDBRANCH   8  29
TORSDOF 8
ENDMDL
MODEL 9
REMARK VINA RESULT:      -6.9      2.153      6.136
REMARK  Name = 
REMARK  8 active torsions:
REMARK  status: ('A' for Active; 'I' for Inactive)
REMARK    1  A    between atoms: C_4  and  O_19
REMARK    2  A    between atoms: C_5  and  C_8
REMARK    3  A    between atoms: C_9  and  O_22
REMARK    4  A    between atoms: C_10  and  O_20
REMARK    5  A    between atoms: C_11  and  O_23
REMARK    6  A    between atoms: C_12  and  O_17
REMARK    7  A    between atoms: O_20  and  C_21
REMARK    8  A    between atoms: C_21  and  C_30
REMARK                            x       y       z     vdW  Elec       q    Type
REMARK                         _______ _______ _______ _____ _____    ______ ____
ROOT
ATOM      1  C   UNL     1     112.245 128.819 139.854  0.00  0.00    +0.000 A 
ATOM      2  C   UNL     1     111.826 128.725 138.941  0.00  0.00    +0.000 A 
ATOM      3  C   UNL     1     112.829 128.121 140.215  0.00  0.00    +0.000 A 
ATOM      4  C   UNL     1     113.030 127.283 139.682  0.00  0.00    +0.000 A 
ATOM      5  C   UNL     1     112.614 127.168 138.751  0.00  0.00    +0.000 A 
ATOM      6  O   UNL     1     112.007 127.902 138.384  0.00  0.00    +0.000 OA
ATOM      7  C   UNL     1     111.242 129.423 138.579  0.00  0.00    +0.000 A 
ATOM      8  C   UNL     1     111.043 130.264 139.118  0.00  0.00    +0.000 A 
ATOM      9  C   UNL     1     111.469 130.368 140.058  0.00  0.00    +0.000 A 
ATOM     10  C   UNL     1     112.057 129.657 140.412  0.00  0.00    +0.000 A 
ATOM     11  O   UNL     1     113.243 128.224 141.129  0.00  0.00    +0.000 OA
ENDROOT
BRANCH   5  13
ATOM     12  C   UNL     1     112.070 125.635 138.186  0.00  0.00    +0.000 A 
ATOM     13  C   UNL     1     112.801 126.341 138.203  0.00  0.00    +0.000 A 
ATOM     14  C   UNL     1     112.264 124.769 137.614  0.00  0.00    +0.000 A 
ATOM     15  C   UNL     1     113.172 124.685 137.110  0.00  0.00    +0.000 A 
ATOM     16  C   UNL     1     113.852 125.422 137.170  0.00  0.00    +0.000 A 
ATOM     17  C   UNL     1     113.668 126.216 137.697  0.00  0.00    +0.000 A 
ATOM     18  O   UNL     1     111.709 123.908 137.423  0.00  0.00    +0.000 OA
ATOM     19  C   UNL     1     112.273 123.292 136.800  0.00  0.00    +0.000 C 
ATOM     20  O   UNL     1     113.172 123.757 136.601  0.00  0.00    +0.000 OA
ENDBRANCH   5  13
BRANCH  10  21
ATOM     21  O   UNL     1     112.471 129.761 141.328  0.00  0.00    +0.000 OA
ATOM     22  C   UNL     1     113.231 130.410 141.466  0.00  0.00    +0.000 C 
ENDBRANCH  10  21
BRANCH   4  23
ATOM     23  O   UNL     1     113.631 126.560 140.048  0.00  0.00    +0.000 OA
ATOM     24  C   UNL     1     114.293 126.769 140.586  0.00  0.00    +0.000 C 
ENDBRANCH   4  23
BRANCH   7  25
ATOM     25  O   UNL     1     110.828 129.319 137.664  0.00  0.00    +0.000 OA
ATOM     26  C   UNL     1     109.986 128.776 137.551  0.00  0.00    +0.000 C 
ENDBRANCH   7  25
BRANCH   9  27
ATOM     27  O   UNL     1     111.282 131.194 140.605  0.00  0.00    +0.000 OA
ATOM     28  C   UNL     1     110.491 131.217 141.229  0.00  0.00    +0.000 C 
ENDBRANCH   9  27
BRANCH   8  29
ATOM     29  O   UNL     1     110.442 130.987 138.752  0.00  0.00    +0.000 OA
BRANCH  29  30
ATOM     30  C   UNL     1     110.830 131.733 138.199  0.00  0.00    +0.000 C 
BRANCH  30  31
ATOM     31  C   UNL     1     110.262 132.286 137.685  0.00  0.00    +0.000 C 
ATOM     32  C   UNL     1     110.603 132.767 136.981  0.00  0.00    +0.000 C 
ATOM     33  C   UNL     1     110.077 133.279 136.506  0.00  0.00    +0.000 C 
ATOM     34  C   UNL     1     111.482 132.710 136.778  0.00  0.00    +0.000 C 
ENDBRANCH  30  31
ENDBRANCH  29  30
ENDBRANCH   8  29
TORSDOF 8
ENDMDL
MODEL 10
REMARK VINA RESULT:      -6.8      1.403      6.086
REMARK  Name = 
REMARK  8 active torsions:
REMARK  status: ('A' for Active; 'I' for Inactive)
REMARK    1  A    between atoms: C_4  and  O_19
REMARK    2  A    between atoms: C_5  and  C_8
REMARK    3  A    between atoms: C_9  and  O_22
REMARK    4  A    between atoms: C_10  and  O_20
REMARK    5  A    between atoms: C_11  and  O_23
REMARK    6  A    between atoms: C_12  and  O_17
REMARK    7  A    between atoms: O_20  and  C_21
REMARK    8  A    between atoms: C_21  and  C_30
REMARK                            x       y       z     vdW  Elec       q    Type
REMARK                         _______ _______ _______ _____ _____    ______ ____
ROOT
ATOM      1  C   UNL     1     112.036 129.306 137.744  0.00  0.00    +0.000 A 
ATOM      2  C   UNL     1     111.717 128.868 136.893  0.00  0.00    +0.000 A 
ATOM      3  C   UNL     1     112.541 128.801 138.413  0.00  0.00    +0.000 A 
ATOM      4  C   UNL     1     112.758 127.822 138.271  0.00  0.00    +0.000 A 
ATOM      5  C   UNL     1     112.442 127.356 137.413  0.00  0.00    +0.000 A 
ATOM      6  O   UNL     1     111.916 127.893 136.721  0.00  0.00    +0.000 OA
ATOM      7  C   UNL     1     111.211 129.373 136.223  0.00  0.00    +0.000 A 
ATOM      8  C   UNL     1     110.996 130.358 136.370  0.00  0.00    +0.000 A 
ATOM      9  C   UNL     1     111.321 130.816 137.242  0.00  0.00    +0.000 A 
ATOM     10  C   UNL     1     111.829 130.296 137.910  0.00  0.00    +0.000 A 
ATOM     11  O   UNL     1     112.856 129.249 139.261  0.00  0.00    +0.000 OA
ENDROOT
BRANCH   5  13
ATOM     12  C   UNL     1     111.913 125.719 137.489  0.00  0.00    +0.000 A 
ATOM     13  C   UNL     1     112.647 126.382 137.252  0.00  0.00    +0.000 A 
ATOM     14  C   UNL     1     112.125 124.699 137.321  0.00  0.00    +0.000 A 
ATOM     15  C   UNL     1     113.053 124.430 136.932  0.00  0.00    +0.000 A 
ATOM     16  C   UNL     1     113.735 125.136 136.719  0.00  0.00    +0.000 A 
ATOM     17  C   UNL     1     113.534 126.073 136.875  0.00  0.00    +0.000 A 
ATOM     18  O   UNL     1     111.574 123.828 137.469  0.00  0.00    +0.000 OA
ATOM     19  C   UNL     1     112.160 123.020 137.171  0.00  0.00    +0.000 C 
ATOM     20  O   UNL     1     113.070 123.375 136.839  0.00  0.00    +0.000 OA
ENDBRANCH   5  13
BRANCH  10  21
ATOM     21  O   UNL     1     112.144 130.745 138.758  0.00  0.00    +0.000 OA
ATOM     22  C   UNL     1     111.504 130.875 139.528  0.00  0.00    +0.000 C 
ENDBRANCH  10  21
BRANCH   4  23
ATOM     23  O   UNL     1     113.278 127.295 138.957  0.00  0.00    +0.000 OA
ATOM     24  C   UNL     1     113.127 127.419 139.813  0.00  0.00    +0.000 C 
ENDBRANCH   4  23
BRANCH   7  25
ATOM     25  O   UNL     1     110.897 128.925 135.376  0.00  0.00    +0.000 OA
ATOM     26  C   UNL     1     111.540 128.781 134.612  0.00  0.00    +0.000 C 
ENDBRANCH   7  25
BRANCH   9  27
ATOM     27  O   UNL     1     111.115 131.790 137.403  0.00  0.00    +0.000 OA
ATOM     28  C   UNL     1     111.648 132.503 136.929  0.00  0.00    +0.000 C 
ENDBRANCH   9  27
BRANCH   8  29
ATOM     29  O   UNL     1     110.476 130.884 135.685  0.00  0.00    +0.000 OA
BRANCH  29  30
ATOM     30  C   UNL     1     109.474 130.952 135.754  0.00  0.00    +0.000 C 
BRANCH  30  31
ATOM     31  C   UNL     1     108.980 131.384 135.074  0.00  0.00    +0.000 C 
ATOM     32  C   UNL     1     108.162 131.755 135.265  0.00  0.00    +0.000 C 
ATOM     33  C   UNL     1     107.706 132.154 134.635  0.00  0.00    +0.000 C 
ATOM     34  C   UNL     1     107.830 131.709 136.104  0.00  0.00    +0.000 C 
ENDBRANCH  30  31
ENDBRANCH  29  30
ENDBRANCH   8  29
TORSDOF 8
ENDMDL
