MODEL 1
REMARK VINA RESULT:      -9.7      0.000      0.000
REMARK  Name = 44257152
REMARK  4 active torsions:
REMARK  status: ('A' for Active; 'I' for Inactive)
REMARK    1  A    between atoms: O_1  and  C_12
REMARK    2  A    between atoms: O_1  and  C_15
REMARK    3  A    between atoms: C_17  and  C_21
REMARK    4  A    between atoms: C_18  and  C_23
REMARK                            x       y       z     vdW  Elec       q    Type
REMARK                         _______ _______ _______ _____ _____    ______ ____
ROOT
ATOM      1  O   UNL     1     105.599 124.479 147.791  0.00  0.00    +0.000 OA
ATOM      2  O   UNL     1     106.994 125.594 146.076  0.00  0.00    +0.000 OA
ATOM      3  O   UNL     1     108.141 125.568 146.951  0.00  0.00    +0.000 OA
ATOM      4  O   UNL     1     107.871 124.393 149.611  0.00  0.00    +0.000 OA
ATOM      5  C   UNL     1     105.737 125.056 146.490  0.00  0.00    +0.000 C 
ATOM      6  C   UNL     1     105.272 124.684 147.062  0.00  0.00    +0.000 C 
ATOM      7  C   UNL     1     106.529 125.222 146.648  0.00  0.00    +0.000 C 
ATOM      8  C   UNL     1     106.857 125.017 147.377  0.00  0.00    +0.000 A 
ATOM      9  C   UNL     1     106.392 124.646 147.948  0.00  0.00    +0.000 A 
ATOM     10  C   UNL     1     107.683 125.196 147.529  0.00  0.00    +0.000 A 
ATOM     11  C   UNL     1     106.721 124.428 148.711  0.00  0.00    +0.000 A 
ATOM     12  C   UNL     1     108.030 124.985 148.286  0.00  0.00    +0.000 A 
ATOM     13  C   UNL     1     107.546 124.599 148.881  0.00  0.00    +0.000 A 
ENDROOT
BRANCH   6  15
ATOM     14  O   UNL     1     102.101 124.021 146.431  0.00  0.00    +0.000 OA
ATOM     15  C   UNL     1     104.479 124.518 146.903  0.00  0.00    +0.000 A 
ATOM     16  C   UNL     1     104.281 123.907 146.386  0.00  0.00    +0.000 A 
ATOM     17  C   UNL     1     103.885 124.963 147.264  0.00  0.00    +0.000 A 
ATOM     18  C   UNL     1     103.488 123.742 146.228  0.00  0.00    +0.000 A 
ATOM     19  C   UNL     1     103.093 124.797 147.106  0.00  0.00    +0.000 A 
ATOM     20  C   UNL     1     102.894 124.186 146.588  0.00  0.00    +0.000 A 
ENDBRANCH   6  15
BRANCH   5  21
ATOM     21  O   UNL     1     105.409 125.261 145.761  0.00  0.00    +0.000 OA
BRANCH  21  26
ATOM     22  O   UNL     1     105.339 126.658 146.054  0.00  0.00    +0.000 OA
ATOM     23  O   UNL     1     105.612 125.607 144.160  0.00  0.00    +0.000 OA
ATOM     24  O   UNL     1     105.643 127.178 143.654  0.00  0.00    +0.000 OA
ATOM     25  O   UNL     1     105.472 128.400 144.748  0.00  0.00    +0.000 OA
ATOM     26  C   UNL     1     105.425 126.045 145.508  0.00  0.00    +0.000 C 
ATOM     27  C   UNL     1     105.526 126.219 144.708  0.00  0.00    +0.000 C 
ATOM     28  C   UNL     1     105.542 127.004 144.454  0.00  0.00    +0.000 C 
ATOM     29  C   UNL     1     105.456 127.615 145.001  0.00  0.00    +0.000 C 
ATOM     30  C   UNL     1     105.355 127.442 145.802  0.00  0.00    +0.000 C 
BRANCH  30  32
ATOM     31  O   UNL     1     104.615 128.069 146.851  0.00  0.00    +0.000 OA
ATOM     32  C   UNL     1     105.269 128.053 146.348  0.00  0.00    +0.000 C 
ENDBRANCH  30  32
ENDBRANCH  21  26
ENDBRANCH   5  21
TORSDOF 4
ENDMDL
MODEL 2
REMARK VINA RESULT:      -9.2     10.514     12.665
REMARK  Name = 44257152
REMARK  4 active torsions:
REMARK  status: ('A' for Active; 'I' for Inactive)
REMARK    1  A    between atoms: O_1  and  C_12
REMARK    2  A    between atoms: O_1  and  C_15
REMARK    3  A    between atoms: C_17  and  C_21
REMARK    4  A    between atoms: C_18  and  C_23
REMARK                            x       y       z     vdW  Elec       q    Type
REMARK                         _______ _______ _______ _____ _____    ______ ____
ROOT
ATOM      1  O   UNL     1     111.910 125.769 136.018  0.00  0.00    +0.000 OA
ATOM      2  O   UNL     1     111.857 128.222 135.686  0.00  0.00    +0.000 OA
ATOM      3  O   UNL     1     110.586 128.132 135.009  0.00  0.00    +0.000 OA
ATOM      4  O   UNL     1     109.345 125.511 134.663  0.00  0.00    +0.000 OA
ATOM      5  C   UNL     1     112.513 127.055 136.185  0.00  0.00    +0.000 C 
ATOM      6  C   UNL     1     112.530 126.237 136.296  0.00  0.00    +0.000 C 
ATOM      7  C   UNL     1     111.875 127.404 135.797  0.00  0.00    +0.000 C 
ATOM      8  C   UNL     1     111.254 126.937 135.519  0.00  0.00    +0.000 A 
ATOM      9  C   UNL     1     111.272 126.120 135.630  0.00  0.00    +0.000 A 
ATOM     10  C   UNL     1     110.595 127.314 135.116  0.00  0.00    +0.000 A 
ATOM     11  C   UNL     1     110.632 125.622 135.345  0.00  0.00    +0.000 A 
ATOM     12  C   UNL     1     109.947 126.832 134.824  0.00  0.00    +0.000 A 
ATOM     13  C   UNL     1     109.964 125.981 134.939  0.00  0.00    +0.000 A 
ENDROOT
BRANCH   6  15
ATOM     14  O   UNL     1     115.085 124.839 137.849  0.00  0.00    +0.000 OA
ATOM     15  C   UNL     1     113.168 125.887 136.685  0.00  0.00    +0.000 A 
ATOM     16  C   UNL     1     113.082 125.617 137.459  0.00  0.00    +0.000 A 
ATOM     17  C   UNL     1     113.894 125.809 136.298  0.00  0.00    +0.000 A 
ATOM     18  C   UNL     1     113.722 125.267 137.847  0.00  0.00    +0.000 A 
ATOM     19  C   UNL     1     114.532 125.459 136.687  0.00  0.00    +0.000 A 
ATOM     20  C   UNL     1     114.446 125.189 137.461  0.00  0.00    +0.000 A 
ENDBRANCH   6  15
BRANCH   5  21
ATOM     21  O   UNL     1     113.133 127.522 136.463  0.00  0.00    +0.000 OA
BRANCH  21  26
ATOM     22  O   UNL     1     112.408 128.051 137.575  0.00  0.00    +0.000 OA
ATOM     23  O   UNL     1     113.976 128.936 136.341  0.00  0.00    +0.000 OA
ATOM     24  O   UNL     1     113.672 130.171 137.391  0.00  0.00    +0.000 OA
ATOM     25  O   UNL     1     112.526 129.992 138.564  0.00  0.00    +0.000 OA
ATOM     26  C   UNL     1     112.981 128.139 136.988  0.00  0.00    +0.000 C 
ATOM     27  C   UNL     1     113.403 128.846 136.927  0.00  0.00    +0.000 C 
ATOM     28  C   UNL     1     113.251 129.464 137.453  0.00  0.00    +0.000 C 
ATOM     29  C   UNL     1     112.677 129.374 138.039  0.00  0.00    +0.000 C 
ATOM     30  C   UNL     1     112.256 128.668 138.100  0.00  0.00    +0.000 C 
BRANCH  30  32
ATOM     31  O   UNL     1     111.764 127.988 139.257  0.00  0.00    +0.000 OA
ATOM     32  C   UNL     1     111.684 128.579 138.687  0.00  0.00    +0.000 C 
ENDBRANCH  30  32
ENDBRANCH  21  26
ENDBRANCH   5  21
TORSDOF 4
ENDMDL
MODEL 3
REMARK VINA RESULT:      -9.2      9.755     11.669
REMARK  Name = 44257152
REMARK  4 active torsions:
REMARK  status: ('A' for Active; 'I' for Inactive)
REMARK    1  A    between atoms: O_1  and  C_12
REMARK    2  A    between atoms: O_1  and  C_15
REMARK    3  A    between atoms: C_17  and  C_21
REMARK    4  A    between atoms: C_18  and  C_23
REMARK                            x       y       z     vdW  Elec       q    Type
REMARK                         _______ _______ _______ _____ _____    ______ ____
ROOT
ATOM      1  O   UNL     1     112.895 126.067 138.613  0.00  0.00    +0.000 OA
ATOM      2  O   UNL     1     110.593 125.686 137.784  0.00  0.00    +0.000 OA
ATOM      3  O   UNL     1     110.037 126.138 139.037  0.00  0.00    +0.000 OA
ATOM      4  O   UNL     1     111.843 126.992 141.167  0.00  0.00    +0.000 OA
ATOM      5  C   UNL     1     112.006 125.651 137.574  0.00  0.00    +0.000 C 
ATOM      6  C   UNL     1     112.773 125.778 137.850  0.00  0.00    +0.000 C 
ATOM      7  C   UNL     1     111.361 125.813 138.061  0.00  0.00    +0.000 C 
ATOM      8  C   UNL     1     111.482 126.103 138.824  0.00  0.00    +0.000 A 
ATOM      9  C   UNL     1     112.248 126.230 139.100  0.00  0.00    +0.000 A 
ATOM     10  C   UNL     1     110.800 126.268 139.321  0.00  0.00    +0.000 A 
ATOM     11  C   UNL     1     112.388 126.531 139.892  0.00  0.00    +0.000 A 
ATOM     12  C   UNL     1     110.921 126.570 140.117  0.00  0.00    +0.000 A 
ATOM     13  C   UNL     1     111.719 126.702 140.405  0.00  0.00    +0.000 A 
ENDROOT
BRANCH   6  15
ATOM     14  O   UNL     1     115.356 125.129 135.901  0.00  0.00    +0.000 OA
ATOM     15  C   UNL     1     113.419 125.615 137.363  0.00  0.00    +0.000 A 
ATOM     16  C   UNL     1     113.647 124.834 137.227  0.00  0.00    +0.000 A 
ATOM     17  C   UNL     1     113.837 126.234 137.012  0.00  0.00    +0.000 A 
ATOM     18  C   UNL     1     114.293 124.672 136.739  0.00  0.00    +0.000 A 
ATOM     19  C   UNL     1     114.482 126.072 136.524  0.00  0.00    +0.000 A 
ATOM     20  C   UNL     1     114.710 125.291 136.388  0.00  0.00    +0.000 A 
ENDBRANCH   6  15
BRANCH   5  21
ATOM     21  O   UNL     1     111.885 125.361 136.811  0.00  0.00    +0.000 OA
BRANCH  21  26
ATOM     22  O   UNL     1     111.466 126.618 136.275  0.00  0.00    +0.000 OA
ATOM     23  O   UNL     1     110.917 124.577 135.728  0.00  0.00    +0.000 OA
ATOM     24  O   UNL     1     110.014 125.442 134.652  0.00  0.00    +0.000 OA
ATOM     25  O   UNL     1     110.079 127.090 134.657  0.00  0.00    +0.000 OA
ATOM     26  C   UNL     1     111.434 125.793 136.273  0.00  0.00    +0.000 C 
ATOM     27  C   UNL     1     110.950 125.401 135.732  0.00  0.00    +0.000 C 
ATOM     28  C   UNL     1     110.498 125.834 135.193  0.00  0.00    +0.000 C 
ATOM     29  C   UNL     1     110.531 126.658 135.196  0.00  0.00    +0.000 C 
ATOM     30  C   UNL     1     111.015 127.050 135.737  0.00  0.00    +0.000 C 
BRANCH  30  32
ATOM     31  O   UNL     1     111.758 128.260 135.577  0.00  0.00    +0.000 OA
ATOM     32  C   UNL     1     111.047 127.874 135.740  0.00  0.00    +0.000 C 
ENDBRANCH  30  32
ENDBRANCH  21  26
ENDBRANCH   5  21
TORSDOF 4
ENDMDL
MODEL 4
REMARK VINA RESULT:      -9.1      1.538      4.067
REMARK  Name = 44257152
REMARK  4 active torsions:
REMARK  status: ('A' for Active; 'I' for Inactive)
REMARK    1  A    between atoms: O_1  and  C_12
REMARK    2  A    between atoms: O_1  and  C_15
REMARK    3  A    between atoms: C_17  and  C_21
REMARK    4  A    between atoms: C_18  and  C_23
REMARK                            x       y       z     vdW  Elec       q    Type
REMARK                         _______ _______ _______ _____ _____    ______ ____
ROOT
ATOM      1  O   UNL     1     103.735 125.773 147.361  0.00  0.00    +0.000 OA
ATOM      2  O   UNL     1     105.679 124.479 146.539  0.00  0.00    +0.000 OA
ATOM      3  O   UNL     1     104.822 123.383 146.154  0.00  0.00    +0.000 OA
ATOM      4  O   UNL     1     101.945 123.602 146.609  0.00  0.00    +0.000 OA
ATOM      5  C   UNL     1     105.142 125.661 147.136  0.00  0.00    +0.000 C 
ATOM      6  C   UNL     1     104.494 126.093 147.410  0.00  0.00    +0.000 C 
ATOM      7  C   UNL     1     105.030 124.910 146.813  0.00  0.00    +0.000 C 
ATOM      8  C   UNL     1     104.271 124.591 146.764  0.00  0.00    +0.000 A 
ATOM      9  C   UNL     1     103.624 125.022 147.038  0.00  0.00    +0.000 A 
ATOM     10  C   UNL     1     104.169 123.807 146.425  0.00  0.00    +0.000 A 
ATOM     11  C   UNL     1     102.829 124.701 146.992  0.00  0.00    +0.000 A 
ATOM     12  C   UNL     1     103.380 123.470 146.372  0.00  0.00    +0.000 A 
ATOM     13  C   UNL     1     102.706 123.919 146.657  0.00  0.00    +0.000 A 
ENDROOT
BRANCH   6  15
ATOM     14  O   UNL     1     104.942 129.096 148.703  0.00  0.00    +0.000 OA
ATOM     15  C   UNL     1     104.606 126.844 147.732  0.00  0.00    +0.000 A 
ATOM     16  C   UNL     1     104.798 127.479 147.243  0.00  0.00    +0.000 A 
ATOM     17  C   UNL     1     104.526 126.959 148.546  0.00  0.00    +0.000 A 
ATOM     18  C   UNL     1     104.910 128.230 147.567  0.00  0.00    +0.000 A 
ATOM     19  C   UNL     1     104.638 127.709 148.869  0.00  0.00    +0.000 A 
ATOM     20  C   UNL     1     104.830 128.345 148.379  0.00  0.00    +0.000 A 
ENDBRANCH   6  15
BRANCH   5  21
ATOM     21  O   UNL     1     105.901 125.981 147.184  0.00  0.00    +0.000 OA
BRANCH  21  26
ATOM     22  O   UNL     1     106.286 125.237 148.343  0.00  0.00    +0.000 OA
ATOM     23  O   UNL     1     107.457 125.933 146.637  0.00  0.00    +0.000 OA
ATOM     24  O   UNL     1     108.620 125.165 147.522  0.00  0.00    +0.000 OA
ATOM     25  O   UNL     1     108.226 124.447 148.953  0.00  0.00    +0.000 OA
ATOM     26  C   UNL     1     106.482 125.597 147.627  0.00  0.00    +0.000 C 
ATOM     27  C   UNL     1     107.260 125.573 147.353  0.00  0.00    +0.000 C 
ATOM     28  C   UNL     1     107.842 125.189 147.796  0.00  0.00    +0.000 C 
ATOM     29  C   UNL     1     107.645 124.830 148.511  0.00  0.00    +0.000 C 
ATOM     30  C   UNL     1     106.867 124.854 148.785  0.00  0.00    +0.000 C 
BRANCH  30  32
ATOM     31  O   UNL     1     106.194 123.821 149.508  0.00  0.00    +0.000 OA
ATOM     32  C   UNL     1     106.670 124.495 149.500  0.00  0.00    +0.000 C 
ENDBRANCH  30  32
ENDBRANCH  21  26
ENDBRANCH   5  21
TORSDOF 4
ENDMDL
MODEL 5
REMARK VINA RESULT:      -9.1      9.873     12.149
REMARK  Name = 44257152
REMARK  4 active torsions:
REMARK  status: ('A' for Active; 'I' for Inactive)
REMARK    1  A    between atoms: O_1  and  C_12
REMARK    2  A    between atoms: O_1  and  C_15
REMARK    3  A    between atoms: C_17  and  C_21
REMARK    4  A    between atoms: C_18  and  C_23
REMARK                            x       y       z     vdW  Elec       q    Type
REMARK                         _______ _______ _______ _____ _____    ______ ____
ROOT
ATOM      1  O   UNL     1     111.906 125.642 136.000  0.00  0.00    +0.000 OA
ATOM      2  O   UNL     1     111.392 127.924 136.813  0.00  0.00    +0.000 OA
ATOM      3  O   UNL     1     110.117 127.908 136.139  0.00  0.00    +0.000 OA
ATOM      4  O   UNL     1     109.347 125.539 134.613  0.00  0.00    +0.000 OA
ATOM      5  C   UNL     1     112.278 126.804 136.745  0.00  0.00    +0.000 C 
ATOM      6  C   UNL     1     112.449 126.043 136.474  0.00  0.00    +0.000 C 
ATOM      7  C   UNL     1     111.563 127.163 136.542  0.00  0.00    +0.000 C 
ATOM      8  C   UNL     1     111.020 126.762 136.067  0.00  0.00    +0.000 A 
ATOM      9  C   UNL     1     111.191 126.002 135.797  0.00  0.00    +0.000 A 
ATOM     10  C   UNL     1     110.280 127.147 135.863  0.00  0.00    +0.000 A 
ATOM     11  C   UNL     1     110.634 125.574 135.302  0.00  0.00    +0.000 A 
ATOM     12  C   UNL     1     109.710 126.734 135.369  0.00  0.00    +0.000 A 
ATOM     13  C   UNL     1     109.888 125.943 135.087  0.00  0.00    +0.000 A 
ENDROOT
BRANCH   6  15
ATOM     14  O   UNL     1     115.306 124.607 137.290  0.00  0.00    +0.000 OA
ATOM     15  C   UNL     1     113.163 125.685 136.677  0.00  0.00    +0.000 A 
ATOM     16  C   UNL     1     113.869 125.951 136.343  0.00  0.00    +0.000 A 
ATOM     17  C   UNL     1     113.171 125.059 137.216  0.00  0.00    +0.000 A 
ATOM     18  C   UNL     1     114.583 125.591 136.547  0.00  0.00    +0.000 A 
ATOM     19  C   UNL     1     113.886 124.700 137.419  0.00  0.00    +0.000 A 
ATOM     20  C   UNL     1     114.592 124.966 137.085  0.00  0.00    +0.000 A 
ENDBRANCH   6  15
BRANCH   5  21
ATOM     21  O   UNL     1     112.821 127.205 137.219  0.00  0.00    +0.000 OA
BRANCH  21  26
ATOM     22  O   UNL     1     112.101 126.996 138.436  0.00  0.00    +0.000 OA
ATOM     23  O   UNL     1     113.382 128.644 137.799  0.00  0.00    +0.000 OA
ATOM     24  O   UNL     1     112.943 129.155 139.305  0.00  0.00    +0.000 OA
ATOM     25  O   UNL     1     111.944 128.226 140.231  0.00  0.00    +0.000 OA
ATOM     26  C   UNL     1     112.602 127.460 137.972  0.00  0.00    +0.000 C 
ATOM     27  C   UNL     1     112.882 128.180 138.262  0.00  0.00    +0.000 C 
ATOM     28  C   UNL     1     112.663 128.435 139.016  0.00  0.00    +0.000 C 
ATOM     29  C   UNL     1     112.163 127.970 139.478  0.00  0.00    +0.000 C 
ATOM     30  C   UNL     1     111.882 127.251 139.189  0.00  0.00    +0.000 C 
BRANCH  30  32
ATOM     31  O   UNL     1     111.616 126.029 139.881  0.00  0.00    +0.000 OA
ATOM     32  C   UNL     1     111.382 126.787 139.652  0.00  0.00    +0.000 C 
ENDBRANCH  30  32
ENDBRANCH  21  26
ENDBRANCH   5  21
TORSDOF 4
ENDMDL
MODEL 6
REMARK VINA RESULT:      -9.0      1.060      3.466
REMARK  Name = 44257152
REMARK  4 active torsions:
REMARK  status: ('A' for Active; 'I' for Inactive)
REMARK    1  A    between atoms: O_1  and  C_12
REMARK    2  A    between atoms: O_1  and  C_15
REMARK    3  A    between atoms: C_17  and  C_21
REMARK    4  A    between atoms: C_18  and  C_23
REMARK                            x       y       z     vdW  Elec       q    Type
REMARK                         _______ _______ _______ _____ _____    ______ ____
ROOT
ATOM      1  O   UNL     1     104.055 124.564 148.365  0.00  0.00    +0.000 OA
ATOM      2  O   UNL     1     104.091 124.363 145.897  0.00  0.00    +0.000 OA
ATOM      3  O   UNL     1     102.659 124.190 145.862  0.00  0.00    +0.000 OA
ATOM      4  O   UNL     1     101.163 124.220 148.370  0.00  0.00    +0.000 OA
ATOM      5  C   UNL     1     104.782 124.549 147.134  0.00  0.00    +0.000 C 
ATOM      6  C   UNL     1     104.770 124.616 147.957  0.00  0.00    +0.000 C 
ATOM      7  C   UNL     1     104.079 124.430 146.720  0.00  0.00    +0.000 C 
ATOM      8  C   UNL     1     103.363 124.379 147.128  0.00  0.00    +0.000 A 
ATOM      9  C   UNL     1     103.351 124.446 147.949  0.00  0.00    +0.000 A 
ATOM     10  C   UNL     1     102.637 124.256 146.684  0.00  0.00    +0.000 A 
ATOM     11  C   UNL     1     102.613 124.394 148.386  0.00  0.00    +0.000 A 
ATOM     12  C   UNL     1     101.890 124.201 147.104  0.00  0.00    +0.000 A 
ATOM     13  C   UNL     1     101.877 124.271 147.960  0.00  0.00    +0.000 A 
ENDROOT
BRANCH   6  15
ATOM     14  O   UNL     1     107.586 125.086 149.612  0.00  0.00    +0.000 OA
ATOM     15  C   UNL     1     105.474 124.734 148.371  0.00  0.00    +0.000 A 
ATOM     16  C   UNL     1     105.631 125.466 148.718  0.00  0.00    +0.000 A 
ATOM     17  C   UNL     1     106.021 124.119 148.437  0.00  0.00    +0.000 A 
ATOM     18  C   UNL     1     106.335 125.583 149.131  0.00  0.00    +0.000 A 
ATOM     19  C   UNL     1     106.725 124.238 148.851  0.00  0.00    +0.000 A 
ATOM     20  C   UNL     1     106.882 124.969 149.198  0.00  0.00    +0.000 A 
ENDBRANCH   6  15
BRANCH   5  21
ATOM     21  O   UNL     1     105.498 124.600 146.726  0.00  0.00    +0.000 OA
BRANCH  21  26
ATOM     22  O   UNL     1     105.283 125.929 146.248  0.00  0.00    +0.000 OA
ATOM     23  O   UNL     1     106.334 124.240 145.351  0.00  0.00    +0.000 OA
ATOM     24  O   UNL     1     106.539 125.389 144.184  0.00  0.00    +0.000 OA
ATOM     25  O   UNL     1     105.906 126.898 144.394  0.00  0.00    +0.000 OA
ATOM     26  C   UNL     1     105.600 125.174 146.144  0.00  0.00    +0.000 C 
ATOM     27  C   UNL     1     106.018 124.994 145.456  0.00  0.00    +0.000 C 
ATOM     28  C   UNL     1     106.120 125.569 144.872  0.00  0.00    +0.000 C 
ATOM     29  C   UNL     1     105.804 126.324 144.978  0.00  0.00    +0.000 C 
ATOM     30  C   UNL     1     105.385 126.504 145.665  0.00  0.00    +0.000 C 
BRANCH  30  32
ATOM     31  O   UNL     1     105.300 127.717 146.416  0.00  0.00    +0.000 OA
ATOM     32  C   UNL     1     105.070 127.258 145.770  0.00  0.00    +0.000 C 
ENDBRANCH  30  32
ENDBRANCH  21  26
ENDBRANCH   5  21
TORSDOF 4
ENDMDL
MODEL 7
REMARK VINA RESULT:      -9.0     10.151     12.260
REMARK  Name = 44257152
REMARK  4 active torsions:
REMARK  status: ('A' for Active; 'I' for Inactive)
REMARK    1  A    between atoms: O_1  and  C_12
REMARK    2  A    between atoms: O_1  and  C_15
REMARK    3  A    between atoms: C_17  and  C_21
REMARK    4  A    between atoms: C_18  and  C_23
REMARK                            x       y       z     vdW  Elec       q    Type
REMARK                         _______ _______ _______ _____ _____    ______ ____
ROOT
ATOM      1  O   UNL     1     113.555 126.805 136.783  0.00  0.00    +0.000 OA
ATOM      2  O   UNL     1     111.597 125.498 136.015  0.00  0.00    +0.000 OA
ATOM      3  O   UNL     1     112.258 124.259 136.347  0.00  0.00    +0.000 OA
ATOM      4  O   UNL     1     114.950 124.344 137.478  0.00  0.00    +0.000 OA
ATOM      5  C   UNL     1     112.238 126.758 136.230  0.00  0.00    +0.000 C 
ATOM      6  C   UNL     1     112.891 127.193 136.486  0.00  0.00    +0.000 C 
ATOM      7  C   UNL     1     112.250 125.934 136.271  0.00  0.00    +0.000 C 
ATOM      8  C   UNL     1     112.915 125.546 136.568  0.00  0.00    +0.000 A 
ATOM      9  C   UNL     1     113.567 125.981 136.824  0.00  0.00    +0.000 A 
ATOM     10  C   UNL     1     112.915 124.687 136.606  0.00  0.00    +0.000 A 
ATOM     11  C   UNL     1     114.265 125.589 137.135  0.00  0.00    +0.000 A 
ATOM     12  C   UNL     1     113.604 124.277 136.914  0.00  0.00    +0.000 A 
ATOM     13  C   UNL     1     114.284 124.730 137.180  0.00  0.00    +0.000 A 
ENDROOT
BRANCH   6  15
ATOM     14  O   UNL     1     112.839 130.489 136.324  0.00  0.00    +0.000 OA
ATOM     15  C   UNL     1     112.878 128.017 136.445  0.00  0.00    +0.000 A 
ATOM     16  C   UNL     1     112.947 128.395 135.715  0.00  0.00    +0.000 A 
ATOM     17  C   UNL     1     112.796 128.463 137.135  0.00  0.00    +0.000 A 
ATOM     18  C   UNL     1     112.934 129.220 135.676  0.00  0.00    +0.000 A 
ATOM     19  C   UNL     1     112.783 129.287 137.094  0.00  0.00    +0.000 A 
ATOM     20  C   UNL     1     112.852 129.665 136.364  0.00  0.00    +0.000 A 
ENDBRANCH   6  15
BRANCH   5  21
ATOM     21  O   UNL     1     111.573 127.146 135.933  0.00  0.00    +0.000 OA
BRANCH  21  26
ATOM     22  O   UNL     1     110.779 126.920 137.100  0.00  0.00    +0.000 OA
ATOM     23  O   UNL     1     110.211 127.125 135.002  0.00  0.00    +0.000 OA
ATOM     24  O   UNL     1     108.736 126.889 135.702  0.00  0.00    +0.000 OA
ATOM     25  O   UNL     1     108.623 126.674 137.333  0.00  0.00    +0.000 OA
ATOM     26  C   UNL     1     110.836 127.028 136.283  0.00  0.00    +0.000 C 
ATOM     27  C   UNL     1     110.155 127.018 135.818  0.00  0.00    +0.000 C 
ATOM     28  C   UNL     1     109.417 126.900 136.168  0.00  0.00    +0.000 C 
ATOM     29  C   UNL     1     109.361 126.792 136.984  0.00  0.00    +0.000 C 
ATOM     30  C   UNL     1     110.042 126.802 137.450  0.00  0.00    +0.000 C 
BRANCH  30  32
ATOM     31  O   UNL     1     110.227 127.294 138.779  0.00  0.00    +0.000 OA
ATOM     32  C   UNL     1     109.985 126.695 138.265  0.00  0.00    +0.000 C 
ENDBRANCH  30  32
ENDBRANCH  21  26
ENDBRANCH   5  21
TORSDOF 4
ENDMDL
MODEL 8
REMARK VINA RESULT:      -9.0      1.424      3.619
REMARK  Name = 44257152
REMARK  4 active torsions:
REMARK  status: ('A' for Active; 'I' for Inactive)
REMARK    1  A    between atoms: O_1  and  C_12
REMARK    2  A    between atoms: O_1  and  C_15
REMARK    3  A    between atoms: C_17  and  C_21
REMARK    4  A    between atoms: C_18  and  C_23
REMARK                            x       y       z     vdW  Elec       q    Type
REMARK                         _______ _______ _______ _____ _____    ______ ____
ROOT
ATOM      1  O   UNL     1     105.636 126.649 148.782  0.00  0.00    +0.000 OA
ATOM      2  O   UNL     1     105.462 126.875 146.322  0.00  0.00    +0.000 OA
ATOM      3  O   UNL     1     104.698 128.091 146.460  0.00  0.00    +0.000 OA
ATOM      4  O   UNL     1     104.098 129.097 149.136  0.00  0.00    +0.000 OA
ATOM      5  C   UNL     1     105.926 126.161 147.470  0.00  0.00    +0.000 C 
ATOM      6  C   UNL     1     105.984 126.086 148.290  0.00  0.00    +0.000 C 
ATOM      7  C   UNL     1     105.520 126.800 147.143  0.00  0.00    +0.000 C 
ATOM      8  C   UNL     1     105.171 127.363 147.634  0.00  0.00    +0.000 A 
ATOM      9  C   UNL     1     105.229 127.288 148.453  0.00  0.00    +0.000 A 
ATOM     10  C   UNL     1     104.750 128.024 147.281  0.00  0.00    +0.000 A 
ATOM     11  C   UNL     1     104.871 127.867 148.977  0.00  0.00    +0.000 A 
ATOM     12  C   UNL     1     104.386 128.613 147.788  0.00  0.00    +0.000 A 
ATOM     13  C   UNL     1     104.446 128.535 148.642  0.00  0.00    +0.000 A 
ENDROOT
BRANCH   6  15
ATOM     14  O   UNL     1     107.608 123.529 149.599  0.00  0.00    +0.000 OA
ATOM     15  C   UNL     1     106.391 125.447 148.617  0.00  0.00    +0.000 A 
ATOM     16  C   UNL     1     107.211 125.399 148.545  0.00  0.00    +0.000 A 
ATOM     17  C   UNL     1     105.976 124.855 149.016  0.00  0.00    +0.000 A 
ATOM     18  C   UNL     1     107.617 124.759 148.873  0.00  0.00    +0.000 A 
ATOM     19  C   UNL     1     106.382 124.216 149.343  0.00  0.00    +0.000 A 
ATOM     20  C   UNL     1     107.203 124.168 149.272  0.00  0.00    +0.000 A 
ENDBRANCH   6  15
BRANCH   5  21
ATOM     21  O   UNL     1     106.275 125.598 146.978  0.00  0.00    +0.000 OA
BRANCH  21  26
ATOM     22  O   UNL     1     105.042 124.960 146.639  0.00  0.00    +0.000 OA
ATOM     23  O   UNL     1     106.890 125.192 145.502  0.00  0.00    +0.000 OA
ATOM     24  O   UNL     1     105.965 124.351 144.425  0.00  0.00    +0.000 OA
ATOM     25  O   UNL     1     104.425 123.917 144.825  0.00  0.00    +0.000 OA
ATOM     26  C   UNL     1     105.812 125.178 146.440  0.00  0.00    +0.000 C 
ATOM     27  C   UNL     1     106.120 124.975 145.702  0.00  0.00    +0.000 C 
ATOM     28  C   UNL     1     105.657 124.554 145.163  0.00  0.00    +0.000 C 
ATOM     29  C   UNL     1     104.887 124.337 145.363  0.00  0.00    +0.000 C 
ATOM     30  C   UNL     1     104.579 124.540 146.101  0.00  0.00    +0.000 C 
BRANCH  30  32
ATOM     31  O   UNL     1     103.673 123.836 146.953  0.00  0.00    +0.000 OA
ATOM     32  C   UNL     1     103.809 124.323 146.301  0.00  0.00    +0.000 C 
ENDBRANCH  30  32
ENDBRANCH  21  26
ENDBRANCH   5  21
TORSDOF 4
ENDMDL
MODEL 9
REMARK VINA RESULT:      -9.0      9.093     11.021
REMARK  Name = 44257152
REMARK  4 active torsions:
REMARK  status: ('A' for Active; 'I' for Inactive)
REMARK    1  A    between atoms: O_1  and  C_12
REMARK    2  A    between atoms: O_1  and  C_15
REMARK    3  A    between atoms: C_17  and  C_21
REMARK    4  A    between atoms: C_18  and  C_23
REMARK                            x       y       z     vdW  Elec       q    Type
REMARK                         _______ _______ _______ _____ _____    ______ ____
ROOT
ATOM      1  O   UNL     1     113.810 126.214 138.384  0.00  0.00    +0.000 OA
ATOM      2  O   UNL     1     111.712 124.985 137.918  0.00  0.00    +0.000 OA
ATOM      3  O   UNL     1     112.329 124.293 136.813  0.00  0.00    +0.000 OA
ATOM      4  O   UNL     1     115.122 124.854 136.168  0.00  0.00    +0.000 OA
ATOM      5  C   UNL     1     112.443 125.935 138.695  0.00  0.00    +0.000 C 
ATOM      6  C   UNL     1     113.143 126.345 138.851  0.00  0.00    +0.000 C 
ATOM      7  C   UNL     1     112.412 125.395 138.073  0.00  0.00    +0.000 C 
ATOM      8  C   UNL     1     113.079 125.264 137.606  0.00  0.00    +0.000 A 
ATOM      9  C   UNL     1     113.777 125.673 137.761  0.00  0.00    +0.000 A 
ATOM     10  C   UNL     1     113.033 124.698 136.961  0.00  0.00    +0.000 A 
ATOM     11  C   UNL     1     114.480 125.545 137.283  0.00  0.00    +0.000 A 
ATOM     12  C   UNL     1     113.725 124.557 136.471  0.00  0.00    +0.000 A 
ATOM     13  C   UNL     1     114.453 124.983 136.633  0.00  0.00    +0.000 A 
ENDROOT
BRANCH   6  15
ATOM     14  O   UNL     1     113.268 128.505 141.342  0.00  0.00    +0.000 OA
ATOM     15  C   UNL     1     113.174 126.886 139.473  0.00  0.00    +0.000 A 
ATOM     16  C   UNL     1     113.189 127.695 139.317  0.00  0.00    +0.000 A 
ATOM     17  C   UNL     1     113.190 126.615 140.253  0.00  0.00    +0.000 A 
ATOM     18  C   UNL     1     113.220 128.235 139.940  0.00  0.00    +0.000 A 
ATOM     19  C   UNL     1     113.222 127.156 140.876  0.00  0.00    +0.000 A 
ATOM     20  C   UNL     1     113.236 127.966 140.719  0.00  0.00    +0.000 A 
ENDBRANCH   6  15
BRANCH   5  21
ATOM     21  O   UNL     1     111.775 126.067 139.162  0.00  0.00    +0.000 OA
BRANCH  21  26
ATOM     22  O   UNL     1     111.092 126.836 138.170  0.00  0.00    +0.000 OA
ATOM     23  O   UNL     1     110.327 125.542 139.753  0.00  0.00    +0.000 OA
ATOM     24  O   UNL     1     108.920 126.048 139.056  0.00  0.00    +0.000 OA
ATOM     25  O   UNL     1     108.961 127.079 137.770  0.00  0.00    +0.000 OA
ATOM     26  C   UNL     1     111.072 126.320 138.814  0.00  0.00    +0.000 C 
ATOM     27  C   UNL     1     110.348 126.057 139.110  0.00  0.00    +0.000 C 
ATOM     28  C   UNL     1     109.644 126.310 138.761  0.00  0.00    +0.000 C 
ATOM     29  C   UNL     1     109.665 126.826 138.118  0.00  0.00    +0.000 C 
ATOM     30  C   UNL     1     110.389 127.088 137.822  0.00  0.00    +0.000 C 
BRANCH  30  32
ATOM     31  O   UNL     1     110.750 128.351 137.258  0.00  0.00    +0.000 OA
ATOM     32  C   UNL     1     110.409 127.604 137.179  0.00  0.00    +0.000 C 
ENDBRANCH  30  32
ENDBRANCH  21  26
ENDBRANCH   5  21
TORSDOF 4
ENDMDL
MODEL 10
REMARK VINA RESULT:      -8.9      0.935      3.452
REMARK  Name = 44257152
REMARK  4 active torsions:
REMARK  status: ('A' for Active; 'I' for Inactive)
REMARK    1  A    between atoms: O_1  and  C_12
REMARK    2  A    between atoms: O_1  and  C_15
REMARK    3  A    between atoms: C_17  and  C_21
REMARK    4  A    between atoms: C_18  and  C_23
REMARK                            x       y       z     vdW  Elec       q    Type
REMARK                         _______ _______ _______ _____ _____    ______ ____
ROOT
ATOM      1  O   UNL     1     106.737 125.654 146.810  0.00  0.00    +0.000 OA
ATOM      2  O   UNL     1     104.879 124.774 148.189  0.00  0.00    +0.000 OA
ATOM      3  O   UNL     1     105.810 124.234 149.150  0.00  0.00    +0.000 OA
ATOM      4  O   UNL     1     108.675 124.592 148.707  0.00  0.00    +0.000 OA
ATOM      5  C   UNL     1     105.336 125.476 147.031  0.00  0.00    +0.000 C 
ATOM      6  C   UNL     1     105.956 125.769 146.571  0.00  0.00    +0.000 C 
ATOM      7  C   UNL     1     105.499 125.067 147.729  0.00  0.00    +0.000 C 
ATOM      8  C   UNL     1     106.280 124.952 147.967  0.00  0.00    +0.000 A 
ATOM      9  C   UNL     1     106.899 125.245 147.508  0.00  0.00    +0.000 A 
ATOM     10  C   UNL     1     106.436 124.524 148.697  0.00  0.00    +0.000 A 
ATOM     11  C   UNL     1     107.717 125.131 147.745  0.00  0.00    +0.000 A 
ATOM     12  C   UNL     1     107.248 124.401 148.949  0.00  0.00    +0.000 A 
ATOM     13  C   UNL     1     107.893 124.706 148.471  0.00  0.00    +0.000 A 
ENDROOT
BRANCH   6  15
ATOM     14  O   UNL     1     105.305 127.402 143.778  0.00  0.00    +0.000 OA
ATOM     15  C   UNL     1     105.793 126.178 145.874  0.00  0.00    +0.000 A 
ATOM     16  C   UNL     1     105.473 126.938 145.905  0.00  0.00    +0.000 A 
ATOM     17  C   UNL     1     105.950 125.826 145.144  0.00  0.00    +0.000 A 
ATOM     18  C   UNL     1     105.311 127.346 145.206  0.00  0.00    +0.000 A 
ATOM     19  C   UNL     1     105.787 126.235 144.446  0.00  0.00    +0.000 A 
ATOM     20  C   UNL     1     105.468 126.994 144.477  0.00  0.00    +0.000 A 
ENDBRANCH   6  15
BRANCH   5  21
ATOM     21  O   UNL     1     104.555 125.592 146.793  0.00  0.00    +0.000 OA
BRANCH  21  26
ATOM     22  O   UNL     1     104.333 124.268 146.301  0.00  0.00    +0.000 OA
ATOM     23  O   UNL     1     103.002 125.644 147.349  0.00  0.00    +0.000 OA
ATOM     24  O   UNL     1     102.005 124.348 147.136  0.00  0.00    +0.000 OA
ATOM     25  O   UNL     1     102.560 122.999 146.366  0.00  0.00    +0.000 OA
ATOM     26  C   UNL     1     104.056 124.944 146.686  0.00  0.00    +0.000 C 
ATOM     27  C   UNL     1     103.280 124.970 146.964  0.00  0.00    +0.000 C 
ATOM     28  C   UNL     1     102.781 124.321 146.857  0.00  0.00    +0.000 C 
ATOM     29  C   UNL     1     103.059 123.647 146.472  0.00  0.00    +0.000 C 
ATOM     30  C   UNL     1     103.835 123.620 146.194  0.00  0.00    +0.000 C 
BRANCH  30  32
ATOM     31  O   UNL     1     104.409 123.001 145.041  0.00  0.00    +0.000 OA
ATOM     32  C   UNL     1     104.112 122.946 145.809  0.00  0.00    +0.000 C 
ENDBRANCH  30  32
ENDBRANCH  21  26
ENDBRANCH   5  21
TORSDOF 4
ENDMDL
