MODEL 1
REMARK VINA RESULT:      -9.0      0.000      0.000
REMARK  Name = 44259730
REMARK  4 active torsions:
REMARK  status: ('A' for Active; 'I' for Inactive)
REMARK    1  A    between atoms: O_2  and  C_17
REMARK    2  A    between atoms: O_2  and  C_19
REMARK    3  A    between atoms: C_16  and  C_18
REMARK    4  A    between atoms: C_20  and  C_24
REMARK                            x       y       z     vdW  Elec       q    Type
REMARK                         _______ _______ _______ _____ _____    ______ ____
ROOT
ATOM      1  O   UNL     1     113.659 127.102 136.474  0.00  0.00    +0.000 OA
ATOM      2  O   UNL     1     110.791 126.729 135.677  0.00  0.00    +0.000 OA
ATOM      3  O   UNL     1     110.855 125.036 136.110  0.00  0.00    +0.000 OA
ATOM      4  O   UNL     1     111.919 123.441 136.830  0.00  0.00    +0.000 OA
ATOM      5  O   UNL     1     113.878 123.695 137.375  0.00  0.00    +0.000 OA
ATOM      6  C   UNL     1     112.178 127.752 135.856  0.00  0.00    +0.000 A 
ATOM      7  C   UNL     1     113.134 127.876 136.122  0.00  0.00    +0.000 A 
ATOM      8  C   UNL     1     111.747 126.854 135.943  0.00  0.00    +0.000 A 
ATOM      9  C   UNL     1     112.273 126.079 136.295  0.00  0.00    +0.000 A 
ATOM     10  C   UNL     1     113.229 126.203 136.560  0.00  0.00    +0.000 A 
ATOM     11  C   UNL     1     111.811 125.149 136.379  0.00  0.00    +0.000 A 
ATOM     12  C   UNL     1     113.790 125.406 136.929  0.00  0.00    +0.000 A 
ATOM     13  C   UNL     1     112.353 124.338 136.745  0.00  0.00    +0.000 A 
ATOM     14  C   UNL     1     113.349 124.467 137.022  0.00  0.00    +0.000 A 
ENDROOT
BRANCH   7  16
ATOM     15  O   UNL     1     114.855 131.471 135.776  0.00  0.00    +0.000 OA
ATOM     16  C   UNL     1     113.564 128.775 136.035  0.00  0.00    +0.000 A 
ATOM     17  C   UNL     1     113.880 129.094 135.142  0.00  0.00    +0.000 A 
ATOM     18  C   UNL     1     113.678 129.354 136.842  0.00  0.00    +0.000 A 
ATOM     19  C   UNL     1     114.310 129.993 135.055  0.00  0.00    +0.000 A 
ATOM     20  C   UNL     1     114.109 130.253 136.756  0.00  0.00    +0.000 A 
ATOM     21  C   UNL     1     114.424 130.572 135.862  0.00  0.00    +0.000 A 
ENDBRANCH   7  16
BRANCH   6  22
ATOM     22  O   UNL     1     111.652 128.526 135.504  0.00  0.00    +0.000 OA
BRANCH  22  31
ATOM     23  O   UNL     1     110.863 128.746 137.030  0.00  0.00    +0.000 OA
ATOM     24  O   UNL     1     108.732 130.381 135.693  0.00  0.00    +0.000 OA
ATOM     25  O   UNL     1     108.653 130.056 137.664  0.00  0.00    +0.000 OA
ATOM     26  O   UNL     1     110.232 129.616 134.612  0.00  0.00    +0.000 OA
ATOM     27  C   UNL     1     109.442 129.836 136.138  0.00  0.00    +0.000 C 
ATOM     28  C   UNL     1     109.403 129.673 137.124  0.00  0.00    +0.000 C 
ATOM     29  C   UNL     1     110.192 129.454 135.598  0.00  0.00    +0.000 C 
ATOM     30  C   UNL     1     110.113 129.128 137.570  0.00  0.00    +0.000 C 
ATOM     31  C   UNL     1     110.902 128.909 136.044  0.00  0.00    +0.000 C 
BRANCH  30  33
ATOM     32  O   UNL     1     110.816 128.476 139.012  0.00  0.00    +0.000 OA
ATOM     33  C   UNL     1     110.073 128.966 138.556  0.00  0.00    +0.000 C 
ENDBRANCH  30  33
ENDBRANCH  22  31
ENDBRANCH   6  22
TORSDOF 4
ENDMDL
MODEL 2
REMARK VINA RESULT:      -8.7      1.338      3.331
REMARK  Name = 44259730
REMARK  4 active torsions:
REMARK  status: ('A' for Active; 'I' for Inactive)
REMARK    1  A    between atoms: O_2  and  C_17
REMARK    2  A    between atoms: O_2  and  C_19
REMARK    3  A    between atoms: C_16  and  C_18
REMARK    4  A    between atoms: C_20  and  C_24
REMARK                            x       y       z     vdW  Elec       q    Type
REMARK                         _______ _______ _______ _____ _____    ______ ____
ROOT
ATOM      1  O   UNL     1     110.814 126.727 135.964  0.00  0.00    +0.000 OA
ATOM      2  O   UNL     1     113.630 127.480 136.674  0.00  0.00    +0.000 OA
ATOM      3  O   UNL     1     114.069 125.798 136.863  0.00  0.00    +0.000 OA
ATOM      4  O   UNL     1     113.536 123.821 136.808  0.00  0.00    +0.000 OA
ATOM      5  O   UNL     1     111.613 123.306 136.323  0.00  0.00    +0.000 OA
ATOM      6  C   UNL     1     112.021 127.941 136.230  0.00  0.00    +0.000 A 
ATOM      7  C   UNL     1     111.082 127.690 135.993  0.00  0.00    +0.000 A 
ATOM      8  C   UNL     1     112.692 127.229 136.438  0.00  0.00    +0.000 A 
ATOM      9  C   UNL     1     112.424 126.266 136.409  0.00  0.00    +0.000 A 
ATOM     10  C   UNL     1     111.485 126.015 136.172  0.00  0.00    +0.000 A 
ATOM     11  C   UNL     1     113.134 125.536 136.628  0.00  0.00    +0.000 A 
ATOM     12  C   UNL     1     111.191 125.016 136.138  0.00  0.00    +0.000 A 
ATOM     13  C   UNL     1     112.862 124.530 136.599  0.00  0.00    +0.000 A 
ATOM     14  C   UNL     1     111.884 124.268 136.353  0.00  0.00    +0.000 A 
ENDROOT
BRANCH   7  16
ATOM     15  O   UNL     1     108.399 130.537 135.162  0.00  0.00    +0.000 OA
ATOM     16  C   UNL     1     110.411 128.402 135.785  0.00  0.00    +0.000 A 
ATOM     17  C   UNL     1     109.689 128.615 136.443  0.00  0.00    +0.000 A 
ATOM     18  C   UNL     1     110.463 128.900 134.920  0.00  0.00    +0.000 A 
ATOM     19  C   UNL     1     109.018 129.327 136.235  0.00  0.00    +0.000 A 
ATOM     20  C   UNL     1     109.793 129.612 134.712  0.00  0.00    +0.000 A 
ATOM     21  C   UNL     1     109.070 129.826 135.370  0.00  0.00    +0.000 A 
ENDBRANCH   7  16
BRANCH   6  22
ATOM     22  O   UNL     1     112.288 128.904 136.259  0.00  0.00    +0.000 OA
BRANCH  22  31
ATOM     23  O   UNL     1     112.143 128.943 137.984  0.00  0.00    +0.000 OA
ATOM     24  O   UNL     1     113.799 131.443 138.067  0.00  0.00    +0.000 OA
ATOM     25  O   UNL     1     113.102 130.649 139.765  0.00  0.00    +0.000 OA
ATOM     26  O   UNL     1     113.393 130.571 136.314  0.00  0.00    +0.000 OA
ATOM     27  C   UNL     1     113.247 130.610 138.040  0.00  0.00    +0.000 C 
ATOM     28  C   UNL     1     112.898 130.213 138.888  0.00  0.00    +0.000 C 
ATOM     29  C   UNL     1     113.044 130.174 137.163  0.00  0.00    +0.000 C 
ATOM     30  C   UNL     1     112.346 129.380 138.861  0.00  0.00    +0.000 C 
ATOM     31  C   UNL     1     112.492 129.340 137.135  0.00  0.00    +0.000 C 
BRANCH  30  33
ATOM     32  O   UNL     1     111.476 128.130 139.686  0.00  0.00    +0.000 OA
ATOM     33  C   UNL     1     111.997 128.983 139.710  0.00  0.00    +0.000 C 
ENDBRANCH  30  33
ENDBRANCH  22  31
ENDBRANCH   6  22
TORSDOF 4
ENDMDL
MODEL 3
REMARK VINA RESULT:      -8.7      1.992      4.962
REMARK  Name = 44259730
REMARK  4 active torsions:
REMARK  status: ('A' for Active; 'I' for Inactive)
REMARK    1  A    between atoms: O_2  and  C_17
REMARK    2  A    between atoms: O_2  and  C_19
REMARK    3  A    between atoms: C_16  and  C_18
REMARK    4  A    between atoms: C_20  and  C_24
REMARK                            x       y       z     vdW  Elec       q    Type
REMARK                         _______ _______ _______ _____ _____    ______ ____
ROOT
ATOM      1  O   UNL     1     113.258 127.425 136.133  0.00  0.00    +0.000 OA
ATOM      2  O   UNL     1     111.563 129.072 137.980  0.00  0.00    +0.000 OA
ATOM      3  O   UNL     1     112.465 130.515 137.577  0.00  0.00    +0.000 OA
ATOM      4  O   UNL     1     113.975 131.411 136.523  0.00  0.00    +0.000 OA
ATOM      5  O   UNL     1     115.134 130.287 135.262  0.00  0.00    +0.000 OA
ATOM      6  C   UNL     1     111.954 127.543 137.267  0.00  0.00    +0.000 A 
ATOM      7  C   UNL     1     112.519 126.994 136.651  0.00  0.00    +0.000 A 
ATOM      8  C   UNL     1     112.128 128.523 137.364  0.00  0.00    +0.000 A 
ATOM      9  C   UNL     1     112.867 128.954 136.847  0.00  0.00    +0.000 A 
ATOM     10  C   UNL     1     113.432 128.405 136.231  0.00  0.00    +0.000 A 
ATOM     11  C   UNL     1     113.036 129.976 136.959  0.00  0.00    +0.000 A 
ATOM     12  C   UNL     1     114.206 128.840 135.685  0.00  0.00    +0.000 A 
ATOM     13  C   UNL     1     113.805 130.432 136.423  0.00  0.00    +0.000 A 
ATOM     14  C   UNL     1     114.394 129.860 135.781  0.00  0.00    +0.000 A 
ENDROOT
BRANCH   7  16
ATOM     15  O   UNL     1     111.823 123.075 136.260  0.00  0.00    +0.000 OA
ATOM     16  C   UNL     1     112.345 126.014 136.553  0.00  0.00    +0.000 A 
ATOM     17  C   UNL     1     112.982 125.352 136.947  0.00  0.00    +0.000 A 
ATOM     18  C   UNL     1     111.535 125.697 136.061  0.00  0.00    +0.000 A 
ATOM     19  C   UNL     1     112.808 124.372 136.850  0.00  0.00    +0.000 A 
ATOM     20  C   UNL     1     111.361 124.717 135.963  0.00  0.00    +0.000 A 
ATOM     21  C   UNL     1     111.997 124.055 136.357  0.00  0.00    +0.000 A 
ENDBRANCH   7  16
BRANCH   6  22
ATOM     22  O   UNL     1     111.215 127.113 137.784  0.00  0.00    +0.000 OA
BRANCH  22  31
ATOM     23  O   UNL     1     112.222 127.036 139.192  0.00  0.00    +0.000 OA
ATOM     24  O   UNL     1     109.844 126.267 140.851  0.00  0.00    +0.000 OA
ATOM     25  O   UNL     1     111.643 126.448 141.705  0.00  0.00    +0.000 OA
ATOM     26  O   UNL     1     109.630 126.600 138.891  0.00  0.00    +0.000 OA
ATOM     27  C   UNL     1     110.637 126.524 140.298  0.00  0.00    +0.000 C 
ATOM     28  C   UNL     1     111.536 126.614 140.725  0.00  0.00    +0.000 C 
ATOM     29  C   UNL     1     110.529 126.690 139.318  0.00  0.00    +0.000 C 
ATOM     30  C   UNL     1     112.329 126.870 140.172  0.00  0.00    +0.000 C 
ATOM     31  C   UNL     1     111.322 126.946 138.765  0.00  0.00    +0.000 C 
BRANCH  30  33
ATOM     32  O   UNL     1     114.055 126.908 140.039  0.00  0.00    +0.000 OA
ATOM     33  C   UNL     1     113.229 126.960 140.599  0.00  0.00    +0.000 C 
ENDBRANCH  30  33
ENDBRANCH  22  31
ENDBRANCH   6  22
TORSDOF 4
ENDMDL
MODEL 4
REMARK VINA RESULT:      -8.6      2.628      5.402
REMARK  Name = 44259730
REMARK  4 active torsions:
REMARK  status: ('A' for Active; 'I' for Inactive)
REMARK    1  A    between atoms: O_2  and  C_17
REMARK    2  A    between atoms: O_2  and  C_19
REMARK    3  A    between atoms: C_16  and  C_18
REMARK    4  A    between atoms: C_20  and  C_24
REMARK                            x       y       z     vdW  Elec       q    Type
REMARK                         _______ _______ _______ _____ _____    ______ ____
ROOT
ATOM      1  O   UNL     1     110.984 130.348 136.310  0.00  0.00    +0.000 OA
ATOM      2  O   UNL     1     111.287 131.569 139.034  0.00  0.00    +0.000 OA
ATOM      3  O   UNL     1     109.606 132.050 139.043  0.00  0.00    +0.000 OA
ATOM      4  O   UNL     1     107.787 132.115 138.103  0.00  0.00    +0.000 OA
ATOM      5  O   UNL     1     107.580 131.282 136.243  0.00  0.00    +0.000 OA
ATOM      6  C   UNL     1     111.970 130.727 137.683  0.00  0.00    +0.000 A 
ATOM      7  C   UNL     1     111.869 130.320 136.775  0.00  0.00    +0.000 A 
ATOM      8  C   UNL     1     111.186 131.162 138.126  0.00  0.00    +0.000 A 
ATOM      9  C   UNL     1     110.301 131.190 137.661  0.00  0.00    +0.000 A 
ATOM     10  C   UNL     1     110.200 130.783 136.753  0.00  0.00    +0.000 A 
ATOM     11  C   UNL     1     109.494 131.646 138.135  0.00  0.00    +0.000 A 
ATOM     12  C   UNL     1     109.284 130.804 136.256  0.00  0.00    +0.000 A 
ATOM     13  C   UNL     1     108.568 131.679 137.657  0.00  0.00    +0.000 A 
ATOM     14  C   UNL     1     108.463 131.256 136.711  0.00  0.00    +0.000 A 
ENDROOT
BRANCH   7  16
ATOM     15  O   UNL     1     115.005 128.581 135.003  0.00  0.00    +0.000 OA
ATOM     16  C   UNL     1     112.653 129.885 136.332  0.00  0.00    +0.000 A 
ATOM     17  C   UNL     1     112.688 128.890 136.243  0.00  0.00    +0.000 A 
ATOM     18  C   UNL     1     113.402 130.446 135.978  0.00  0.00    +0.000 A 
ATOM     19  C   UNL     1     113.472 128.455 135.800  0.00  0.00    +0.000 A 
ATOM     20  C   UNL     1     114.186 130.011 135.535  0.00  0.00    +0.000 A 
ATOM     21  C   UNL     1     114.221 129.016 135.446  0.00  0.00    +0.000 A 
ENDBRANCH   7  16
BRANCH   6  22
ATOM     22  O   UNL     1     112.855 130.699 138.148  0.00  0.00    +0.000 OA
BRANCH  22  31
ATOM     23  O   UNL     1     112.333 129.362 139.117  0.00  0.00    +0.000 OA
ATOM     24  O   UNL     1     114.699 129.747 140.921  0.00  0.00    +0.000 OA
ATOM     25  O   UNL     1     113.388 128.282 141.289  0.00  0.00    +0.000 OA
ATOM     26  O   UNL     1     114.432 130.956 139.351  0.00  0.00    +0.000 OA
ATOM     27  C   UNL     1     113.910 129.619 140.320  0.00  0.00    +0.000 C 
ATOM     28  C   UNL     1     113.255 128.886 140.504  0.00  0.00    +0.000 C 
ATOM     29  C   UNL     1     113.777 130.223 139.535  0.00  0.00    +0.000 C 
ATOM     30  C   UNL     1     112.466 128.758 139.902  0.00  0.00    +0.000 C 
ATOM     31  C   UNL     1     112.988 130.095 138.933  0.00  0.00    +0.000 C 
BRANCH  30  33
ATOM     32  O   UNL     1     111.055 127.860 139.453  0.00  0.00    +0.000 OA
ATOM     33  C   UNL     1     111.811 128.025 140.086  0.00  0.00    +0.000 C 
ENDBRANCH  30  33
ENDBRANCH  22  31
ENDBRANCH   6  22
TORSDOF 4
ENDMDL
MODEL 5
REMARK VINA RESULT:      -8.5      2.024      5.257
REMARK  Name = 44259730
REMARK  4 active torsions:
REMARK  status: ('A' for Active; 'I' for Inactive)
REMARK    1  A    between atoms: O_2  and  C_17
REMARK    2  A    between atoms: O_2  and  C_19
REMARK    3  A    between atoms: C_16  and  C_18
REMARK    4  A    between atoms: C_20  and  C_24
REMARK                            x       y       z     vdW  Elec       q    Type
REMARK                         _______ _______ _______ _____ _____    ______ ____
ROOT
ATOM      1  O   UNL     1     110.677 127.714 136.011  0.00  0.00    +0.000 OA
ATOM      2  O   UNL     1     109.499 128.370 138.691  0.00  0.00    +0.000 OA
ATOM      3  O   UNL     1     108.724 129.796 138.040  0.00  0.00    +0.000 OA
ATOM      4  O   UNL     1     108.344 131.020 136.442  0.00  0.00    +0.000 OA
ATOM      5  O   UNL     1     109.148 130.572 134.612  0.00  0.00    +0.000 OA
ATOM      6  C   UNL     1     110.465 127.339 137.689  0.00  0.00    +0.000 A 
ATOM      7  C   UNL     1     110.857 127.120 136.796  0.00  0.00    +0.000 A 
ATOM      8  C   UNL     1     109.891 128.151 137.798  0.00  0.00    +0.000 A 
ATOM      9  C   UNL     1     109.710 128.744 137.013  0.00  0.00    +0.000 A 
ATOM     10  C   UNL     1     110.103 128.525 136.120  0.00  0.00    +0.000 A 
ATOM     11  C   UNL     1     109.111 129.586 137.142  0.00  0.00    +0.000 A 
ATOM     12  C   UNL     1     109.924 129.134 135.293  0.00  0.00    +0.000 A 
ATOM     13  C   UNL     1     108.918 130.209 136.329  0.00  0.00    +0.000 A 
ATOM     14  C   UNL     1     109.327 129.982 135.399  0.00  0.00    +0.000 A 
ENDROOT
BRANCH   7  16
ATOM     15  O   UNL     1     113.151 123.873 136.361  0.00  0.00    +0.000 OA
ATOM     16  C   UNL     1     111.431 126.308 136.687  0.00  0.00    +0.000 A 
ATOM     17  C   UNL     1     112.422 126.405 136.599  0.00  0.00    +0.000 A 
ATOM     18  C   UNL     1     111.013 125.400 136.666  0.00  0.00    +0.000 A 
ATOM     19  C   UNL     1     112.996 125.593 136.490  0.00  0.00    +0.000 A 
ATOM     20  C   UNL     1     111.586 124.588 136.557  0.00  0.00    +0.000 A 
ATOM     21  C   UNL     1     112.578 124.685 136.470  0.00  0.00    +0.000 A 
ENDBRANCH   7  16
BRANCH   6  22
ATOM     22  O   UNL     1     110.646 126.746 138.474  0.00  0.00    +0.000 OA
BRANCH  22  31
ATOM     23  O   UNL     1     111.824 127.867 139.071  0.00  0.00    +0.000 OA
ATOM     24  O   UNL     1     111.952 126.353 141.658  0.00  0.00    +0.000 OA
ATOM     25  O   UNL     1     113.087 127.979 141.392  0.00  0.00    +0.000 OA
ATOM     26  O   UNL     1     110.732 125.737 140.198  0.00  0.00    +0.000 OA
ATOM     27  C   UNL     1     111.909 126.858 140.795  0.00  0.00    +0.000 C 
ATOM     28  C   UNL     1     112.477 127.670 140.663  0.00  0.00    +0.000 C 
ATOM     29  C   UNL     1     111.299 126.550 140.066  0.00  0.00    +0.000 C 
ATOM     30  C   UNL     1     112.434 128.175 139.800  0.00  0.00    +0.000 C 
ATOM     31  C   UNL     1     111.256 127.054 139.203  0.00  0.00    +0.000 C 
BRANCH  30  33
ATOM     32  O   UNL     1     113.156 129.344 138.746  0.00  0.00    +0.000 OA
ATOM     33  C   UNL     1     113.001 128.987 139.667  0.00  0.00    +0.000 C 
ENDBRANCH  30  33
ENDBRANCH  22  31
ENDBRANCH   6  22
TORSDOF 4
ENDMDL
MODEL 6
REMARK VINA RESULT:      -8.4      2.454      3.081
REMARK  Name = 44259730
REMARK  4 active torsions:
REMARK  status: ('A' for Active; 'I' for Inactive)
REMARK    1  A    between atoms: O_2  and  C_17
REMARK    2  A    between atoms: O_2  and  C_19
REMARK    3  A    between atoms: C_16  and  C_18
REMARK    4  A    between atoms: C_20  and  C_24
REMARK                            x       y       z     vdW  Elec       q    Type
REMARK                         _______ _______ _______ _____ _____    ______ ____
ROOT
ATOM      1  O   UNL     1     113.375 127.969 138.871  0.00  0.00    +0.000 OA
ATOM      2  O   UNL     1     111.336 128.976 136.914  0.00  0.00    +0.000 OA
ATOM      3  O   UNL     1     111.196 127.389 136.191  0.00  0.00    +0.000 OA
ATOM      4  O   UNL     1     111.764 125.422 136.136  0.00  0.00    +0.000 OA
ATOM      5  O   UNL     1     113.157 124.734 137.472  0.00  0.00    +0.000 OA
ATOM      6  C   UNL     1     112.413 129.264 138.239  0.00  0.00    +0.000 A 
ATOM      7  C   UNL     1     113.093 128.928 138.892  0.00  0.00    +0.000 A 
ATOM      8  C   UNL     1     112.016 128.640 137.566  0.00  0.00    +0.000 A 
ATOM      9  C   UNL     1     112.298 127.681 137.545  0.00  0.00    +0.000 A 
ATOM     10  C   UNL     1     112.978 127.345 138.198  0.00  0.00    +0.000 A 
ATOM     11  C   UNL     1     111.875 127.043 136.839  0.00  0.00    +0.000 A 
ATOM     12  C   UNL     1     113.281 126.348 138.188  0.00  0.00    +0.000 A 
ATOM     13  C   UNL     1     112.164 126.042 136.811  0.00  0.00    +0.000 A 
ATOM     14  C   UNL     1     112.872 125.693 137.490  0.00  0.00    +0.000 A 
ENDROOT
BRANCH   7  16
ATOM     15  O   UNL     1     114.683 131.422 141.584  0.00  0.00    +0.000 OA
ATOM     16  C   UNL     1     113.490 129.552 139.565  0.00  0.00    +0.000 A 
ATOM     17  C   UNL     1     114.185 130.214 139.284  0.00  0.00    +0.000 A 
ATOM     18  C   UNL     1     113.194 129.513 140.519  0.00  0.00    +0.000 A 
ATOM     19  C   UNL     1     114.582 130.838 139.957  0.00  0.00    +0.000 A 
ATOM     20  C   UNL     1     113.591 130.136 141.192  0.00  0.00    +0.000 A 
ATOM     21  C   UNL     1     114.285 130.799 140.911  0.00  0.00    +0.000 A 
ENDBRANCH   7  16
BRANCH   6  22
ATOM     22  O   UNL     1     112.131 130.223 138.260  0.00  0.00    +0.000 OA
BRANCH  22  31
ATOM     23  O   UNL     1     110.657 129.806 139.068  0.00  0.00    +0.000 OA
ATOM     24  O   UNL     1     109.541 132.516 138.429  0.00  0.00    +0.000 OA
ATOM     25  O   UNL     1     108.438 131.196 139.449  0.00  0.00    +0.000 OA
ATOM     26  O   UNL     1     111.387 132.030 137.835  0.00  0.00    +0.000 OA
ATOM     27  C   UNL     1     109.913 131.613 138.642  0.00  0.00    +0.000 C 
ATOM     28  C   UNL     1     109.361 130.953 139.152  0.00  0.00    +0.000 C 
ATOM     29  C   UNL     1     110.836 131.369 138.345  0.00  0.00    +0.000 C 
ATOM     30  C   UNL     1     109.733 130.049 139.365  0.00  0.00    +0.000 C 
ATOM     31  C   UNL     1     111.208 130.466 138.558  0.00  0.00    +0.000 C 
BRANCH  30  33
ATOM     32  O   UNL     1     109.314 128.408 139.728  0.00  0.00    +0.000 OA
ATOM     33  C   UNL     1     109.182 129.389 139.875  0.00  0.00    +0.000 C 
ENDBRANCH  30  33
ENDBRANCH  22  31
ENDBRANCH   6  22
TORSDOF 4
ENDMDL
MODEL 7
REMARK VINA RESULT:      -8.4      2.352      4.816
REMARK  Name = 44259730
REMARK  4 active torsions:
REMARK  status: ('A' for Active; 'I' for Inactive)
REMARK    1  A    between atoms: O_2  and  C_17
REMARK    2  A    between atoms: O_2  and  C_19
REMARK    3  A    between atoms: C_16  and  C_18
REMARK    4  A    between atoms: C_20  and  C_24
REMARK                            x       y       z     vdW  Elec       q    Type
REMARK                         _______ _______ _______ _____ _____    ______ ____
ROOT
ATOM      1  O   UNL     1     112.565 126.895 139.965  0.00  0.00    +0.000 OA
ATOM      2  O   UNL     1     113.131 129.656 138.936  0.00  0.00    +0.000 OA
ATOM      3  O   UNL     1     112.704 130.356 140.481  0.00  0.00    +0.000 OA
ATOM      4  O   UNL     1     112.072 130.108 142.413  0.00  0.00    +0.000 OA
ATOM      5  O   UNL     1     111.685 128.223 143.116  0.00  0.00    +0.000 OA
ATOM      6  C   UNL     1     113.062 127.944 138.680  0.00  0.00    +0.000 A 
ATOM      7  C   UNL     1     112.874 127.024 139.022  0.00  0.00    +0.000 A 
ATOM      8  C   UNL     1     112.942 128.736 139.279  0.00  0.00    +0.000 A 
ATOM      9  C   UNL     1     112.633 128.607 140.221  0.00  0.00    +0.000 A 
ATOM     10  C   UNL     1     112.444 127.687 140.564  0.00  0.00    +0.000 A 
ATOM     11  C   UNL     1     112.513 129.441 140.834  0.00  0.00    +0.000 A 
ATOM     12  C   UNL     1     112.122 127.536 141.544  0.00  0.00    +0.000 A 
ATOM     13  C   UNL     1     112.191 129.314 141.817  0.00  0.00    +0.000 A 
ATOM     14  C   UNL     1     111.994 128.356 142.174  0.00  0.00    +0.000 A 
ENDROOT
BRANCH   7  16
ATOM     15  O   UNL     1     113.354 123.859 136.625  0.00  0.00    +0.000 OA
ATOM     16  C   UNL     1     112.994 126.233 138.423  0.00  0.00    +0.000 A 
ATOM     17  C   UNL     1     113.914 125.914 138.195  0.00  0.00    +0.000 A 
ATOM     18  C   UNL     1     112.194 125.761 138.052  0.00  0.00    +0.000 A 
ATOM     19  C   UNL     1     114.034 125.122 137.595  0.00  0.00    +0.000 A 
ATOM     20  C   UNL     1     112.314 124.969 137.452  0.00  0.00    +0.000 A 
ATOM     21  C   UNL     1     113.234 124.650 137.224  0.00  0.00    +0.000 A 
ENDBRANCH   7  16
BRANCH   6  22
ATOM     22  O   UNL     1     113.371 128.073 137.737  0.00  0.00    +0.000 OA
BRANCH  22  31
ATOM     23  O   UNL     1     111.778 128.559 137.262  0.00  0.00    +0.000 OA
ATOM     24  O   UNL     1     112.848 129.475 134.613  0.00  0.00    +0.000 OA
ATOM     25  O   UNL     1     110.898 129.655 135.021  0.00  0.00    +0.000 OA
ATOM     26  O   UNL     1     114.084 128.684 135.972  0.00  0.00    +0.000 OA
ATOM     27  C   UNL     1     112.491 129.170 135.496  0.00  0.00    +0.000 C 
ATOM     28  C   UNL     1     111.517 129.260 135.700  0.00  0.00    +0.000 C 
ATOM     29  C   UNL     1     113.110 128.774 136.175  0.00  0.00    +0.000 C 
ATOM     30  C   UNL     1     111.160 128.954 136.583  0.00  0.00    +0.000 C 
ATOM     31  C   UNL     1     112.753 128.469 137.058  0.00  0.00    +0.000 C 
BRANCH  30  33
ATOM     32  O   UNL     1     109.807 128.630 137.614  0.00  0.00    +0.000 OA
ATOM     33  C   UNL     1     110.185 129.045 136.786  0.00  0.00    +0.000 C 
ENDBRANCH  30  33
ENDBRANCH  22  31
ENDBRANCH   6  22
TORSDOF 4
ENDMDL
MODEL 8
REMARK VINA RESULT:      -8.4      2.047      4.544
REMARK  Name = 44259730
REMARK  4 active torsions:
REMARK  status: ('A' for Active; 'I' for Inactive)
REMARK    1  A    between atoms: O_2  and  C_17
REMARK    2  A    between atoms: O_2  and  C_19
REMARK    3  A    between atoms: C_16  and  C_18
REMARK    4  A    between atoms: C_20  and  C_24
REMARK                            x       y       z     vdW  Elec       q    Type
REMARK                         _______ _______ _______ _____ _____    ______ ____
ROOT
ATOM      1  O   UNL     1     111.524 126.228 139.526  0.00  0.00    +0.000 OA
ATOM      2  O   UNL     1     110.404 128.581 138.039  0.00  0.00    +0.000 OA
ATOM      3  O   UNL     1     109.185 128.821 139.269  0.00  0.00    +0.000 OA
ATOM      4  O   UNL     1     108.332 128.247 141.041  0.00  0.00    +0.000 OA
ATOM      5  O   UNL     1     109.097 126.640 142.057  0.00  0.00    +0.000 OA
ATOM      6  C   UNL     1     111.562 127.298 138.165  0.00  0.00    +0.000 A 
ATOM      7  C   UNL     1     111.935 126.514 138.660  0.00  0.00    +0.000 A 
ATOM      8  C   UNL     1     110.777 127.796 138.535  0.00  0.00    +0.000 A 
ATOM      9  C   UNL     1     110.366 127.510 139.400  0.00  0.00    +0.000 A 
ATOM     10  C   UNL     1     110.740 126.726 139.896  0.00  0.00    +0.000 A 
ATOM     11  C   UNL     1     109.550 128.039 139.773  0.00  0.00    +0.000 A 
ATOM     12  C   UNL     1     110.322 126.416 140.799  0.00  0.00    +0.000 A 
ATOM     13  C   UNL     1     109.116 127.746 140.674  0.00  0.00    +0.000 A 
ATOM     14  C   UNL     1     109.505 126.930 141.191  0.00  0.00    +0.000 A 
ENDROOT
BRANCH   7  16
ATOM     15  O   UNL     1     115.072 124.522 137.181  0.00  0.00    +0.000 OA
ATOM     16  C   UNL     1     112.719 126.016 138.290  0.00  0.00    +0.000 A 
ATOM     17  C   UNL     1     112.589 125.359 137.548  0.00  0.00    +0.000 A 
ATOM     18  C   UNL     1     113.633 126.175 138.663  0.00  0.00    +0.000 A 
ATOM     19  C   UNL     1     113.374 124.861 137.178  0.00  0.00    +0.000 A 
ATOM     20  C   UNL     1     114.418 125.677 138.293  0.00  0.00    +0.000 A 
ATOM     21  C   UNL     1     114.288 125.020 137.550  0.00  0.00    +0.000 A 
ENDBRANCH   7  16
BRANCH   6  22
ATOM     22  O   UNL     1     111.973 127.585 137.299  0.00  0.00    +0.000 OA
BRANCH  22  31
ATOM     23  O   UNL     1     112.738 128.919 138.095  0.00  0.00    +0.000 OA
ATOM     24  O   UNL     1     113.663 129.971 135.442  0.00  0.00    +0.000 OA
ATOM     25  O   UNL     1     114.120 130.955 137.122  0.00  0.00    +0.000 OA
ATOM     26  O   UNL     1     112.589 128.286 135.531  0.00  0.00    +0.000 OA
ATOM     27  C   UNL     1     113.354 129.620 136.326  0.00  0.00    +0.000 C 
ATOM     28  C   UNL     1     113.583 130.112 137.167  0.00  0.00    +0.000 C 
ATOM     29  C   UNL     1     112.818 128.778 136.371  0.00  0.00    +0.000 C 
ATOM     30  C   UNL     1     113.275 129.762 138.051  0.00  0.00    +0.000 C 
ATOM     31  C   UNL     1     112.509 128.427 137.255  0.00  0.00    +0.000 C 
BRANCH  30  33
ATOM     32  O   UNL     1     112.793 130.440 139.570  0.00  0.00    +0.000 OA
ATOM     33  C   UNL     1     113.503 130.253 138.891  0.00  0.00    +0.000 C 
ENDBRANCH  30  33
ENDBRANCH  22  31
ENDBRANCH   6  22
TORSDOF 4
ENDMDL
MODEL 9
REMARK VINA RESULT:      -8.4      2.772      5.820
REMARK  Name = 44259730
REMARK  4 active torsions:
REMARK  status: ('A' for Active; 'I' for Inactive)
REMARK    1  A    between atoms: O_2  and  C_17
REMARK    2  A    between atoms: O_2  and  C_19
REMARK    3  A    between atoms: C_16  and  C_18
REMARK    4  A    between atoms: C_20  and  C_24
REMARK                            x       y       z     vdW  Elec       q    Type
REMARK                         _______ _______ _______ _____ _____    ______ ____
ROOT
ATOM      1  O   UNL     1     110.016 129.886 136.396  0.00  0.00    +0.000 OA
ATOM      2  O   UNL     1     109.463 129.793 139.343  0.00  0.00    +0.000 OA
ATOM      3  O   UNL     1     109.719 131.518 139.480  0.00  0.00    +0.000 OA
ATOM      4  O   UNL     1     110.171 133.307 138.594  0.00  0.00    +0.000 OA
ATOM      5  O   UNL     1     110.549 133.372 136.581  0.00  0.00    +0.000 OA
ATOM      6  C   UNL     1     109.610 128.985 137.818  0.00  0.00    +0.000 A 
ATOM      7  C   UNL     1     109.794 129.016 136.836  0.00  0.00    +0.000 A 
ATOM      8  C   UNL     1     109.648 129.824 138.360  0.00  0.00    +0.000 A 
ATOM      9  C   UNL     1     109.869 130.694 137.921  0.00  0.00    +0.000 A 
ATOM     10  C   UNL     1     110.054 130.725 136.938  0.00  0.00    +0.000 A 
ATOM     11  C   UNL     1     109.905 131.560 138.499  0.00  0.00    +0.000 A 
ATOM     12  C   UNL     1     110.286 131.625 136.466  0.00  0.00    +0.000 A 
ATOM     13  C   UNL     1     110.135 132.471 138.048  0.00  0.00    +0.000 A 
ATOM     14  C   UNL     1     110.327 132.503 137.024  0.00  0.00    +0.000 A 
ENDROOT
BRANCH   7  16
ATOM     15  O   UNL     1     109.645 125.659 134.665  0.00  0.00    +0.000 OA
ATOM     16  C   UNL     1     109.757 128.177 136.293  0.00  0.00    +0.000 A 
ATOM     17  C   UNL     1     108.874 127.759 136.079  0.00  0.00    +0.000 A 
ATOM     18  C   UNL     1     110.602 127.756 135.965  0.00  0.00    +0.000 A 
ATOM     19  C   UNL     1     108.837 126.920 135.537  0.00  0.00    +0.000 A 
ATOM     20  C   UNL     1     110.565 126.917 135.422  0.00  0.00    +0.000 A 
ATOM     21  C   UNL     1     109.682 126.498 135.208  0.00  0.00    +0.000 A 
ENDBRANCH   7  16
BRANCH   6  22
ATOM     22  O   UNL     1     109.388 128.115 138.258  0.00  0.00    +0.000 OA
BRANCH  22  31
ATOM     23  O   UNL     1     111.012 127.971 138.842  0.00  0.00    +0.000 OA
ATOM     24  O   UNL     1     110.167 125.723 140.640  0.00  0.00    +0.000 OA
ATOM     25  O   UNL     1     112.073 126.329 140.625  0.00  0.00    +0.000 OA
ATOM     26  O   UNL     1     108.825 126.616 139.456  0.00  0.00    +0.000 OA
ATOM     27  C   UNL     1     110.449 126.472 140.041  0.00  0.00    +0.000 C 
ATOM     28  C   UNL     1     111.402 126.775 140.033  0.00  0.00    +0.000 C 
ATOM     29  C   UNL     1     109.778 126.919 139.449  0.00  0.00    +0.000 C 
ATOM     30  C   UNL     1     111.684 127.524 139.434  0.00  0.00    +0.000 C 
ATOM     31  C   UNL     1     110.059 127.668 138.850  0.00  0.00    +0.000 C 
BRANCH  30  33
ATOM     32  O   UNL     1     112.919 128.576 138.827  0.00  0.00    +0.000 OA
ATOM     33  C   UNL     1     112.637 127.827 139.426  0.00  0.00    +0.000 C 
ENDBRANCH  30  33
ENDBRANCH  22  31
ENDBRANCH   6  22
TORSDOF 4
ENDMDL
MODEL 10
REMARK VINA RESULT:      -8.4      2.078      3.001
REMARK  Name = 44259730
REMARK  4 active torsions:
REMARK  status: ('A' for Active; 'I' for Inactive)
REMARK    1  A    between atoms: O_2  and  C_17
REMARK    2  A    between atoms: O_2  and  C_19
REMARK    3  A    between atoms: C_16  and  C_18
REMARK    4  A    between atoms: C_20  and  C_24
REMARK                            x       y       z     vdW  Elec       q    Type
REMARK                         _______ _______ _______ _____ _____    ______ ____
ROOT
ATOM      1  O   UNL     1     113.580 127.131 138.952  0.00  0.00    +0.000 OA
ATOM      2  O   UNL     1     110.849 126.550 137.856  0.00  0.00    +0.000 OA
ATOM      3  O   UNL     1     111.449 125.141 137.011  0.00  0.00    +0.000 OA
ATOM      4  O   UNL     1     113.013 123.908 136.534  0.00  0.00    +0.000 OA
ATOM      5  O   UNL     1     114.878 124.304 137.282  0.00  0.00    +0.000 OA
ATOM      6  C   UNL     1     111.901 127.535 138.816  0.00  0.00    +0.000 A 
ATOM      7  C   UNL     1     112.811 127.728 139.181  0.00  0.00    +0.000 A 
ATOM      8  C   UNL     1     111.759 126.744 138.221  0.00  0.00    +0.000 A 
ATOM      9  C   UNL     1     112.527 126.146 137.992  0.00  0.00    +0.000 A 
ATOM     10  C   UNL     1     113.438 126.339 138.358  0.00  0.00    +0.000 A 
ATOM     11  C   UNL     1     112.364 125.325 137.371  0.00  0.00    +0.000 A 
ATOM     12  C   UNL     1     114.248 125.726 138.128  0.00  0.00    +0.000 A 
ATOM     13  C   UNL     1     113.159 124.698 137.128  0.00  0.00    +0.000 A 
ATOM     14  C   UNL     1     114.108 124.899 137.509  0.00  0.00    +0.000 A 
ENDROOT
BRANCH   7  16
ATOM     15  O   UNL     1     113.380 130.894 141.560  0.00  0.00    +0.000 OA
ATOM     16  C   UNL     1     112.954 128.520 139.776  0.00  0.00    +0.000 A 
ATOM     17  C   UNL     1     113.408 129.337 139.421  0.00  0.00    +0.000 A 
ATOM     18  C   UNL     1     112.642 128.494 140.726  0.00  0.00    +0.000 A 
ATOM     19  C   UNL     1     113.550 130.128 140.016  0.00  0.00    +0.000 A 
ATOM     20  C   UNL     1     112.784 129.285 141.321  0.00  0.00    +0.000 A 
ATOM     21  C   UNL     1     113.238 130.102 140.965  0.00  0.00    +0.000 A 
ENDBRANCH   7  16
BRANCH   6  22
ATOM     22  O   UNL     1     111.133 128.133 139.045  0.00  0.00    +0.000 OA
BRANCH  22  31
ATOM     23  O   UNL     1     111.275 128.955 137.527  0.00  0.00    +0.000 OA
ATOM     24  O   UNL     1     108.552 130.151 137.920  0.00  0.00    +0.000 OA
ATOM     25  O   UNL     1     109.602 130.574 136.271  0.00  0.00    +0.000 OA
ATOM     26  O   UNL     1     109.318 128.931 139.307  0.00  0.00    +0.000 OA
ATOM     27  C   UNL     1     109.460 129.752 137.789  0.00  0.00    +0.000 C 
ATOM     28  C   UNL     1     109.985 129.964 136.964  0.00  0.00    +0.000 C 
ATOM     29  C   UNL     1     109.843 129.142 138.482  0.00  0.00    +0.000 C 
ATOM     30  C   UNL     1     110.893 129.565 136.833  0.00  0.00    +0.000 C 
ATOM     31  C   UNL     1     110.750 128.743 138.351  0.00  0.00    +0.000 C 
BRANCH  30  33
ATOM     32  O   UNL     1     112.338 129.404 135.893  0.00  0.00    +0.000 OA
ATOM     33  C   UNL     1     111.418 129.777 136.009  0.00  0.00    +0.000 C 
ENDBRANCH  30  33
ENDBRANCH  22  31
ENDBRANCH   6  22
TORSDOF 4
ENDMDL
