MODEL 1
REMARK VINA RESULT:     -11.5      0.000      0.000
REMARK  Name = 44257755
REMARK  8 active torsions:
REMARK  status: ('A' for Active; 'I' for Inactive)
REMARK    1  A    between atoms: O_1  and  C_20
REMARK    2  A    between atoms: O_1  and  C_25
REMARK    3  A    between atoms: O_13  and  C_40
REMARK    4  A    between atoms: O_13  and  C_48
REMARK    5  A    between atoms: C_22  and  C_30
REMARK    6  A    between atoms: C_24  and  C_31
REMARK    7  A    between atoms: C_39  and  C_44
REMARK    8  A    between atoms: C_45  and  C_47
REMARK                            x       y       z     vdW  Elec       q    Type
REMARK                         _______ _______ _______ _____ _____    ______ ____
ROOT
ATOM      1  O   UNL     1     111.245 127.224 136.068  0.00  0.00    +0.000 OA
ATOM      2  O   UNL     1     113.639 125.940 137.024  0.00  0.00    +0.000 OA
ATOM      3  O   UNL     1     111.587 124.361 135.814  0.00  0.00    +0.000 OA
ATOM      4  O   UNL     1     110.373 124.966 135.322  0.00  0.00    +0.000 OA
ATOM      5  C   UNL     1     112.447 126.563 136.546  0.00  0.00    +0.000 A 
ATOM      6  C   UNL     1     111.707 126.509 136.184  0.00  0.00    +0.000 A 
ATOM      7  C   UNL     1     112.900 125.884 136.663  0.00  0.00    +0.000 A 
ATOM      8  C   UNL     1     111.420 125.774 135.940  0.00  0.00    +0.000 A 
ATOM      9  C   UNL     1     112.613 125.151 136.419  0.00  0.00    +0.000 A 
ATOM     10  C   UNL     1     111.874 125.095 136.057  0.00  0.00    +0.000 A 
ATOM     11  C   UNL     1     110.652 125.704 135.563  0.00  0.00    +0.000 A 
ATOM     12  C   UNL     1     110.473 127.173 135.692  0.00  0.00    +0.000 A 
ATOM     13  C   UNL     1     110.175 126.409 135.438  0.00  0.00    +0.000 A 
ENDROOT
BRANCH   5  19
ATOM     14  O   UNL     1     113.219 127.739 136.290  0.00  0.00    +0.000 OA
ATOM     15  O   UNL     1     112.619 128.620 138.523  0.00  0.00    +0.000 OA
ATOM     16  O   UNL     1     113.591 129.500 137.522  0.00  0.00    +0.000 OA
ATOM     17  C   UNL     1     112.533 127.592 137.534  0.00  0.00    +0.000 C 
ATOM     18  C   UNL     1     112.819 128.327 137.778  0.00  0.00    +0.000 C 
ATOM     19  C   UNL     1     112.733 127.298 136.790  0.00  0.00    +0.000 C 
ATOM     20  C   UNL     1     113.306 128.767 137.278  0.00  0.00    +0.000 C 
ATOM     21  C   UNL     1     113.505 128.472 136.534  0.00  0.00    +0.000 C 
BRANCH  21  23
ATOM     22  O   UNL     1     113.940 128.814 135.215  0.00  0.00    +0.000 OA
ATOM     23  C   UNL     1     113.992 128.912 136.033  0.00  0.00    +0.000 C 
ENDBRANCH  21  23
BRANCH  17  24
ATOM     24  O   UNL     1     112.046 127.151 138.034  0.00  0.00    +0.000 OA
BRANCH  24  29
ATOM     25  O   UNL     1     113.049 126.964 139.035  0.00  0.00    +0.000 OA
ATOM     26  O   UNL     1     110.877 127.108 139.198  0.00  0.00    +0.000 OA
ATOM     27  O   UNL     1     111.295 126.899 140.780  0.00  0.00    +0.000 OA
ATOM     28  O   UNL     1     112.882 126.733 141.199  0.00  0.00    +0.000 OA
ATOM     29  C   UNL     1     112.256 127.047 138.826  0.00  0.00    +0.000 C 
ATOM     30  C   UNL     1     111.671 127.025 139.407  0.00  0.00    +0.000 C 
ATOM     31  C   UNL     1     111.880 126.921 140.199  0.00  0.00    +0.000 C 
ATOM     32  C   UNL     1     112.673 126.838 140.407  0.00  0.00    +0.000 C 
ATOM     33  C   UNL     1     113.258 126.859 139.826  0.00  0.00    +0.000 C 
ATOM     34  C   UNL     1     114.052 126.776 140.036  0.00  0.00    +0.000 C 
ENDBRANCH  24  29
ENDBRANCH  17  24
ENDBRANCH   5  19
BRANCH  12  35
ATOM     35  C   UNL     1     110.022 127.855 135.576  0.00  0.00    +0.000 A 
ATOM     36  C   UNL     1     109.120 129.215 135.345  0.00  0.00    +0.000 A 
ATOM     37  C   UNL     1     110.198 128.365 134.952  0.00  0.00    +0.000 A 
ATOM     38  C   UNL     1     109.395 128.025 136.084  0.00  0.00    +0.000 A 
ATOM     39  C   UNL     1     109.747 129.045 134.836  0.00  0.00    +0.000 A 
ATOM     40  C   UNL     1     108.943 128.705 135.968  0.00  0.00    +0.000 A 
BRANCH  36  41
ATOM     41  O   UNL     1     108.668 129.897 135.228  0.00  0.00    +0.000 OA
BRANCH  41  50
ATOM     42  O   UNL     1     109.512 130.832 135.904  0.00  0.00    +0.000 OA
ATOM     43  O   UNL     1     107.520 131.900 136.912  0.00  0.00    +0.000 OA
ATOM     44  O   UNL     1     109.027 132.479 137.253  0.00  0.00    +0.000 OA
ATOM     45  O   UNL     1     107.341 130.609 135.900  0.00  0.00    +0.000 OA
ATOM     46  C   UNL     1     108.184 131.544 136.576  0.00  0.00    +0.000 C 
ATOM     47  C   UNL     1     108.938 131.833 136.746  0.00  0.00    +0.000 C 
ATOM     48  C   UNL     1     108.094 130.899 136.070  0.00  0.00    +0.000 C 
ATOM     49  C   UNL     1     109.602 131.477 136.410  0.00  0.00    +0.000 C 
ATOM     50  C   UNL     1     108.758 130.543 135.734  0.00  0.00    +0.000 C 
BRANCH  49  52
ATOM     51  O   UNL     1     110.901 131.291 136.976  0.00  0.00    +0.000 OA
ATOM     52  C   UNL     1     110.355 131.767 136.581  0.00  0.00    +0.000 C 
ENDBRANCH  49  52
ENDBRANCH  41  50
ENDBRANCH  36  41
ENDBRANCH  12  35
TORSDOF 8
ENDMDL
MODEL 2
REMARK VINA RESULT:     -11.2      2.134      5.147
REMARK  Name = 44257755
REMARK  8 active torsions:
REMARK  status: ('A' for Active; 'I' for Inactive)
REMARK    1  A    between atoms: O_1  and  C_20
REMARK    2  A    between atoms: O_1  and  C_25
REMARK    3  A    between atoms: O_13  and  C_40
REMARK    4  A    between atoms: O_13  and  C_48
REMARK    5  A    between atoms: C_22  and  C_30
REMARK    6  A    between atoms: C_24  and  C_31
REMARK    7  A    between atoms: C_39  and  C_44
REMARK    8  A    between atoms: C_45  and  C_47
REMARK                            x       y       z     vdW  Elec       q    Type
REMARK                         _______ _______ _______ _____ _____    ______ ____
ROOT
ATOM      1  O   UNL     1     112.563 126.159 138.458  0.00  0.00    +0.000 OA
ATOM      2  O   UNL     1     110.854 124.624 136.718  0.00  0.00    +0.000 OA
ATOM      3  O   UNL     1     113.686 124.266 136.579  0.00  0.00    +0.000 OA
ATOM      4  O   UNL     1     114.576 125.015 137.433  0.00  0.00    +0.000 OA
ATOM      5  C   UNL     1     111.713 125.379 137.575  0.00  0.00    +0.000 A 
ATOM      6  C   UNL     1     112.471 125.571 137.838  0.00  0.00    +0.000 A 
ATOM      7  C   UNL     1     111.613 124.816 136.980  0.00  0.00    +0.000 A 
ATOM      8  C   UNL     1     113.129 125.200 137.506  0.00  0.00    +0.000 A 
ATOM      9  C   UNL     1     112.270 124.445 136.648  0.00  0.00    +0.000 A 
ATOM     10  C   UNL     1     113.029 124.637 136.911  0.00  0.00    +0.000 A 
ATOM     11  C   UNL     1     113.923 125.391 137.770  0.00  0.00    +0.000 A 
ATOM     12  C   UNL     1     113.350 126.362 138.736  0.00  0.00    +0.000 A 
ATOM     13  C   UNL     1     114.035 125.977 138.390  0.00  0.00    +0.000 A 
ENDROOT
BRANCH   5  19
ATOM     14  O   UNL     1     110.847 125.597 138.691  0.00  0.00    +0.000 OA
ATOM     15  O   UNL     1     109.498 127.169 137.337  0.00  0.00    +0.000 OA
ATOM     16  O   UNL     1     109.082 126.863 138.904  0.00  0.00    +0.000 OA
ATOM     17  C   UNL     1     110.606 126.274 137.456  0.00  0.00    +0.000 C 
ATOM     18  C   UNL     1     109.947 126.645 137.789  0.00  0.00    +0.000 C 
ATOM     19  C   UNL     1     111.055 125.750 137.908  0.00  0.00    +0.000 C 
ATOM     20  C   UNL     1     109.739 126.492 138.572  0.00  0.00    +0.000 C 
ATOM     21  C   UNL     1     110.190 125.968 139.023  0.00  0.00    +0.000 C 
BRANCH  21  23
ATOM     22  O   UNL     1     110.003 125.042 140.096  0.00  0.00    +0.000 OA
ATOM     23  C   UNL     1     109.982 125.815 139.807  0.00  0.00    +0.000 C 
ENDBRANCH  21  23
BRANCH  17  24
ATOM     24  O   UNL     1     110.814 126.427 136.672  0.00  0.00    +0.000 OA
BRANCH  24  29
ATOM     25  O   UNL     1     111.142 127.803 136.871  0.00  0.00    +0.000 OA
ATOM     26  O   UNL     1     110.237 126.781 135.168  0.00  0.00    +0.000 OA
ATOM     27  O   UNL     1     110.277 128.335 134.614  0.00  0.00    +0.000 OA
ATOM     28  O   UNL     1     110.894 129.534 135.564  0.00  0.00    +0.000 OA
ATOM     29  C   UNL     1     110.834 127.204 136.396  0.00  0.00    +0.000 C 
ATOM     30  C   UNL     1     110.546 127.381 135.644  0.00  0.00    +0.000 C 
ATOM     31  C   UNL     1     110.565 128.158 135.366  0.00  0.00    +0.000 C 
ATOM     32  C   UNL     1     110.874 128.757 135.842  0.00  0.00    +0.000 C 
ATOM     33  C   UNL     1     111.162 128.580 136.594  0.00  0.00    +0.000 C 
ATOM     34  C   UNL     1     111.471 129.180 137.069  0.00  0.00    +0.000 C 
ENDBRANCH  24  29
ENDBRANCH  17  24
ENDBRANCH   5  19
BRANCH  12  35
ATOM     35  C   UNL     1     113.447 126.926 139.331  0.00  0.00    +0.000 A 
ATOM     36  C   UNL     1     113.642 128.051 140.521  0.00  0.00    +0.000 A 
ATOM     37  C   UNL     1     113.458 127.729 139.142  0.00  0.00    +0.000 A 
ATOM     38  C   UNL     1     113.534 126.686 140.115  0.00  0.00    +0.000 A 
ATOM     39  C   UNL     1     113.555 128.292 139.737  0.00  0.00    +0.000 A 
ATOM     40  C   UNL     1     113.632 127.248 140.711  0.00  0.00    +0.000 A 
BRANCH  36  41
ATOM     41  O   UNL     1     113.740 128.615 141.117  0.00  0.00    +0.000 OA
BRANCH  41  50
ATOM     42  O   UNL     1     112.397 128.626 141.607  0.00  0.00    +0.000 OA
ATOM     43  O   UNL     1     112.507 131.087 141.849  0.00  0.00    +0.000 OA
ATOM     44  O   UNL     1     111.128 130.279 142.258  0.00  0.00    +0.000 OA
ATOM     45  O   UNL     1     113.812 130.255 141.278  0.00  0.00    +0.000 OA
ATOM     46  C   UNL     1     112.470 130.267 141.768  0.00  0.00    +0.000 C 
ATOM     47  C   UNL     1     111.781 129.862 141.973  0.00  0.00    +0.000 C 
ATOM     48  C   UNL     1     113.123 129.851 141.483  0.00  0.00    +0.000 C 
ATOM     49  C   UNL     1     111.744 129.042 141.892  0.00  0.00    +0.000 C 
ATOM     50  C   UNL     1     113.087 129.031 141.402  0.00  0.00    +0.000 C 
BRANCH  49  52
ATOM     51  O   UNL     1     111.084 128.021 142.643  0.00  0.00    +0.000 OA
ATOM     52  C   UNL     1     111.055 128.639 142.097  0.00  0.00    +0.000 C 
ENDBRANCH  49  52
ENDBRANCH  41  50
ENDBRANCH  36  41
ENDBRANCH  12  35
TORSDOF 8
ENDMDL
MODEL 3
REMARK VINA RESULT:     -11.1      1.489      4.830
REMARK  Name = 44257755
REMARK  8 active torsions:
REMARK  status: ('A' for Active; 'I' for Inactive)
REMARK    1  A    between atoms: O_1  and  C_20
REMARK    2  A    between atoms: O_1  and  C_25
REMARK    3  A    between atoms: O_13  and  C_40
REMARK    4  A    between atoms: O_13  and  C_48
REMARK    5  A    between atoms: C_22  and  C_30
REMARK    6  A    between atoms: C_24  and  C_31
REMARK    7  A    between atoms: C_39  and  C_44
REMARK    8  A    between atoms: C_45  and  C_47
REMARK                            x       y       z     vdW  Elec       q    Type
REMARK                         _______ _______ _______ _____ _____    ______ ____
ROOT
ATOM      1  O   UNL     1     110.347 128.529 136.158  0.00  0.00    +0.000 OA
ATOM      2  O   UNL     1     110.581 131.377 136.525  0.00  0.00    +0.000 OA
ATOM      3  O   UNL     1     108.030 130.244 135.908  0.00  0.00    +0.000 OA
ATOM      4  O   UNL     1     107.871 128.823 135.717  0.00  0.00    +0.000 OA
ATOM      5  C   UNL     1     110.450 129.966 136.340  0.00  0.00    +0.000 A 
ATOM      6  C   UNL     1     109.983 129.306 136.176  0.00  0.00    +0.000 A 
ATOM      7  C   UNL     1     110.112 130.718 136.360  0.00  0.00    +0.000 A 
ATOM      8  C   UNL     1     109.175 129.400 136.032  0.00  0.00    +0.000 A 
ATOM      9  C   UNL     1     109.305 130.810 136.216  0.00  0.00    +0.000 A 
ATOM     10  C   UNL     1     108.836 130.152 136.052  0.00  0.00    +0.000 A 
ATOM     11  C   UNL     1     108.677 128.722 135.860  0.00  0.00    +0.000 A 
ATOM     12  C   UNL     1     109.864 127.839 135.987  0.00  0.00    +0.000 A 
ATOM     13  C   UNL     1     109.024 127.935 135.837  0.00  0.00    +0.000 A 
ENDROOT
BRANCH   5  19
ATOM     14  O   UNL     1     111.766 129.666 135.868  0.00  0.00    +0.000 OA
ATOM     15  O   UNL     1     112.662 130.006 138.150  0.00  0.00    +0.000 OA
ATOM     16  O   UNL     1     113.678 129.593 136.917  0.00  0.00    +0.000 OA
ATOM     17  C   UNL     1     111.556 129.986 137.245  0.00  0.00    +0.000 C 
ATOM     18  C   UNL     1     112.364 129.893 137.389  0.00  0.00    +0.000 C 
ATOM     19  C   UNL     1     111.258 129.873 136.484  0.00  0.00    +0.000 C 
ATOM     20  C   UNL     1     112.872 129.686 136.773  0.00  0.00    +0.000 C 
ATOM     21  C   UNL     1     112.572 129.573 136.012  0.00  0.00    +0.000 C 
BRANCH  21  23
ATOM     22  O   UNL     1     112.833 129.448 134.612  0.00  0.00    +0.000 OA
ATOM     23  C   UNL     1     113.080 129.367 135.396  0.00  0.00    +0.000 C 
ENDBRANCH  21  23
BRANCH  17  24
ATOM     24  O   UNL     1     111.048 130.192 137.861  0.00  0.00    +0.000 OA
BRANCH  24  29
ATOM     25  O   UNL     1     111.259 129.007 138.632  0.00  0.00    +0.000 OA
ATOM     26  O   UNL     1     110.897 131.069 139.251  0.00  0.00    +0.000 OA
ATOM     27  O   UNL     1     111.033 130.323 140.716  0.00  0.00    +0.000 OA
ATOM     28  O   UNL     1     111.319 128.700 140.792  0.00  0.00    +0.000 OA
ATOM     29  C   UNL     1     111.116 129.818 138.594  0.00  0.00    +0.000 C 
ATOM     30  C   UNL     1     111.041 130.257 139.289  0.00  0.00    +0.000 C 
ATOM     31  C   UNL     1     111.108 129.884 140.021  0.00  0.00    +0.000 C 
ATOM     32  C   UNL     1     111.252 129.073 140.059  0.00  0.00    +0.000 C 
ATOM     33  C   UNL     1     111.327 128.634 139.364  0.00  0.00    +0.000 C 
ATOM     34  C   UNL     1     111.470 127.823 139.403  0.00  0.00    +0.000 C 
ENDBRANCH  24  29
ENDBRANCH  17  24
ENDBRANCH   5  19
BRANCH  12  35
ATOM     35  C   UNL     1     110.206 127.087 135.968  0.00  0.00    +0.000 A 
ATOM     36  C   UNL     1     110.888 125.586 135.927  0.00  0.00    +0.000 A 
ATOM     37  C   UNL     1     110.187 126.608 136.639  0.00  0.00    +0.000 A 
ATOM     38  C   UNL     1     110.565 126.816 135.277  0.00  0.00    +0.000 A 
ATOM     39  C   UNL     1     110.529 125.857 136.618  0.00  0.00    +0.000 A 
ATOM     40  C   UNL     1     110.907 126.065 135.256  0.00  0.00    +0.000 A 
BRANCH  36  41
ATOM     41  O   UNL     1     111.230 124.834 135.908  0.00  0.00    +0.000 OA
BRANCH  41  50
ATOM     42  O   UNL     1     112.540 125.297 136.243  0.00  0.00    +0.000 OA
ATOM     43  O   UNL     1     113.018 123.138 137.354  0.00  0.00    +0.000 OA
ATOM     44  O   UNL     1     114.169 124.320 137.319  0.00  0.00    +0.000 OA
ATOM     45  O   UNL     1     111.549 123.396 136.648  0.00  0.00    +0.000 OA
ATOM     46  C   UNL     1     112.859 123.858 136.984  0.00  0.00    +0.000 C 
ATOM     47  C   UNL     1     113.434 124.449 136.966  0.00  0.00    +0.000 C 
ATOM     48  C   UNL     1     112.124 123.986 136.631  0.00  0.00    +0.000 C 
ATOM     49  C   UNL     1     113.274 125.169 136.595  0.00  0.00    +0.000 C 
ATOM     50  C   UNL     1     111.965 124.706 136.260  0.00  0.00    +0.000 C 
BRANCH  49  52
ATOM     51  O   UNL     1     113.798 126.402 137.093  0.00  0.00    +0.000 OA
ATOM     52  C   UNL     1     113.850 125.760 136.578  0.00  0.00    +0.000 C 
ENDBRANCH  49  52
ENDBRANCH  41  50
ENDBRANCH  36  41
ENDBRANCH  12  35
TORSDOF 8
ENDMDL
MODEL 4
REMARK VINA RESULT:     -11.0      1.856      5.297
REMARK  Name = 44257755
REMARK  8 active torsions:
REMARK  status: ('A' for Active; 'I' for Inactive)
REMARK    1  A    between atoms: O_1  and  C_20
REMARK    2  A    between atoms: O_1  and  C_25
REMARK    3  A    between atoms: O_13  and  C_40
REMARK    4  A    between atoms: O_13  and  C_48
REMARK    5  A    between atoms: C_22  and  C_30
REMARK    6  A    between atoms: C_24  and  C_31
REMARK    7  A    between atoms: C_39  and  C_44
REMARK    8  A    between atoms: C_45  and  C_47
REMARK                            x       y       z     vdW  Elec       q    Type
REMARK                         _______ _______ _______ _____ _____    ______ ____
ROOT
ATOM      1  O   UNL     1     109.917 130.320 136.397  0.00  0.00    +0.000 OA
ATOM      2  O   UNL     1     110.740 132.656 137.868  0.00  0.00    +0.000 OA
ATOM      3  O   UNL     1     109.370 132.973 135.381  0.00  0.00    +0.000 OA
ATOM      4  O   UNL     1     108.941 131.829 134.614  0.00  0.00    +0.000 OA
ATOM      5  C   UNL     1     110.326 131.506 137.128  0.00  0.00    +0.000 A 
ATOM      6  C   UNL     1     109.960 131.175 136.468  0.00  0.00    +0.000 A 
ATOM      7  C   UNL     1     110.374 132.326 137.207  0.00  0.00    +0.000 A 
ATOM      8  C   UNL     1     109.641 131.665 135.885  0.00  0.00    +0.000 A 
ATOM      9  C   UNL     1     110.055 132.815 136.625  0.00  0.00    +0.000 A 
ATOM     10  C   UNL     1     109.689 132.485 135.963  0.00  0.00    +0.000 A 
ATOM     11  C   UNL     1     109.257 131.333 135.192  0.00  0.00    +0.000 A 
ATOM     12  C   UNL     1     109.537 129.970 135.711  0.00  0.00    +0.000 A 
ATOM     13  C   UNL     1     109.205 130.479 135.104  0.00  0.00    +0.000 A 
ENDROOT
BRANCH   5  19
ATOM     14  O   UNL     1     110.147 130.620 138.236  0.00  0.00    +0.000 OA
ATOM     15  O   UNL     1     112.600 130.341 138.410  0.00  0.00    +0.000 OA
ATOM     16  O   UNL     1     111.603 129.548 139.458  0.00  0.00    +0.000 OA
ATOM     17  C   UNL     1     111.463 130.924 137.769  0.00  0.00    +0.000 C 
ATOM     18  C   UNL     1     111.782 130.434 138.352  0.00  0.00    +0.000 C 
ATOM     19  C   UNL     1     110.646 131.016 137.711  0.00  0.00    +0.000 C 
ATOM     20  C   UNL     1     111.284 130.037 138.876  0.00  0.00    +0.000 C 
ATOM     21  C   UNL     1     110.466 130.131 138.818  0.00  0.00    +0.000 C 
BRANCH  21  23
ATOM     22  O   UNL     1     109.244 130.070 139.558  0.00  0.00    +0.000 OA
ATOM     23  C   UNL     1     109.968 129.735 139.342  0.00  0.00    +0.000 C 
ENDBRANCH  21  23
BRANCH  17  24
ATOM     24  O   UNL     1     111.962 131.320 137.245  0.00  0.00    +0.000 OA
BRANCH  24  29
ATOM     25  O   UNL     1     112.524 130.119 136.713  0.00  0.00    +0.000 OA
ATOM     26  O   UNL     1     113.361 132.125 136.905  0.00  0.00    +0.000 OA
ATOM     27  O   UNL     1     114.623 131.327 136.203  0.00  0.00    +0.000 OA
ATOM     28  O   UNL     1     114.486 129.722 135.842  0.00  0.00    +0.000 OA
ATOM     29  C   UNL     1     112.593 130.920 136.894  0.00  0.00    +0.000 C 
ATOM     30  C   UNL     1     113.292 131.323 136.724  0.00  0.00    +0.000 C 
ATOM     31  C   UNL     1     113.924 130.924 136.373  0.00  0.00    +0.000 C 
ATOM     32  C   UNL     1     113.854 130.122 136.193  0.00  0.00    +0.000 C 
ATOM     33  C   UNL     1     113.155 129.719 136.363  0.00  0.00    +0.000 C 
ATOM     34  C   UNL     1     113.086 128.917 136.182  0.00  0.00    +0.000 C 
ENDBRANCH  24  29
ENDBRANCH  17  24
ENDBRANCH   5  19
BRANCH  12  35
ATOM     35  C   UNL     1     109.491 129.149 135.635  0.00  0.00    +0.000 A 
ATOM     36  C   UNL     1     109.398 127.509 135.484  0.00  0.00    +0.000 A 
ATOM     37  C   UNL     1     110.036 128.747 135.164  0.00  0.00    +0.000 A 
ATOM     38  C   UNL     1     108.900 128.731 136.030  0.00  0.00    +0.000 A 
ATOM     39  C   UNL     1     109.989 127.927 135.088  0.00  0.00    +0.000 A 
ATOM     40  C   UNL     1     108.853 127.911 135.955  0.00  0.00    +0.000 A 
BRANCH  36  41
ATOM     41  O   UNL     1     109.352 126.688 135.408  0.00  0.00    +0.000 OA
BRANCH  41  50
ATOM     42  O   UNL     1     109.970 126.324 136.644  0.00  0.00    +0.000 OA
ATOM     43  O   UNL     1     111.209 124.517 135.493  0.00  0.00    +0.000 OA
ATOM     44  O   UNL     1     111.414 124.755 137.112  0.00  0.00    +0.000 OA
ATOM     45  O   UNL     1     110.178 125.484 134.641  0.00  0.00    +0.000 OA
ATOM     46  C   UNL     1     110.796 125.119 135.876  0.00  0.00    +0.000 C 
ATOM     47  C   UNL     1     110.898 125.239 136.686  0.00  0.00    +0.000 C 
ATOM     48  C   UNL     1     110.280 125.602 135.450  0.00  0.00    +0.000 C 
ATOM     49  C   UNL     1     110.485 125.841 137.070  0.00  0.00    +0.000 C 
ATOM     50  C   UNL     1     109.868 126.205 135.834  0.00  0.00    +0.000 C 
BRANCH  49  52
ATOM     51  O   UNL     1     109.933 125.987 138.380  0.00  0.00    +0.000 OA
ATOM     52  C   UNL     1     110.588 125.960 137.880  0.00  0.00    +0.000 C 
ENDBRANCH  49  52
ENDBRANCH  41  50
ENDBRANCH  36  41
ENDBRANCH  12  35
TORSDOF 8
ENDMDL
MODEL 5
REMARK VINA RESULT:     -11.0      1.720      5.013
REMARK  Name = 44257755
REMARK  8 active torsions:
REMARK  status: ('A' for Active; 'I' for Inactive)
REMARK    1  A    between atoms: O_1  and  C_20
REMARK    2  A    between atoms: O_1  and  C_25
REMARK    3  A    between atoms: O_13  and  C_40
REMARK    4  A    between atoms: O_13  and  C_48
REMARK    5  A    between atoms: C_22  and  C_30
REMARK    6  A    between atoms: C_24  and  C_31
REMARK    7  A    between atoms: C_39  and  C_44
REMARK    8  A    between atoms: C_45  and  C_47
REMARK                            x       y       z     vdW  Elec       q    Type
REMARK                         _______ _______ _______ _____ _____    ______ ____
ROOT
ATOM      1  O   UNL     1     110.443 130.279 136.017  0.00  0.00    +0.000 OA
ATOM      2  O   UNL     1     110.701 132.835 137.323  0.00  0.00    +0.000 OA
ATOM      3  O   UNL     1     108.723 132.489 135.289  0.00  0.00    +0.000 OA
ATOM      4  O   UNL     1     108.562 131.225 134.612  0.00  0.00    +0.000 OA
ATOM      5  C   UNL     1     110.562 131.573 136.667  0.00  0.00    +0.000 A 
ATOM      6  C   UNL     1     110.187 131.094 136.110  0.00  0.00    +0.000 A 
ATOM      7  C   UNL     1     110.325 132.357 136.765  0.00  0.00    +0.000 A 
ATOM      8  C   UNL     1     109.573 131.400 135.650  0.00  0.00    +0.000 A 
ATOM      9  C   UNL     1     109.712 132.662 136.306  0.00  0.00    +0.000 A 
ATOM     10  C   UNL     1     109.336 132.184 135.748  0.00  0.00    +0.000 A 
ATOM     11  C   UNL     1     109.174 130.912 135.067  0.00  0.00    +0.000 A 
ATOM     12  C   UNL     1     110.056 129.776 135.439  0.00  0.00    +0.000 A 
ATOM     13  C   UNL     1     109.417 130.094 134.960  0.00  0.00    +0.000 A 
ENDROOT
BRANCH   5  19
ATOM     14  O   UNL     1     111.912 131.117 136.786  0.00  0.00    +0.000 OA
ATOM     15  O   UNL     1     111.543 130.648 139.187  0.00  0.00    +0.000 OA
ATOM     16  O   UNL     1     113.015 130.350 138.505  0.00  0.00    +0.000 OA
ATOM     17  C   UNL     1     111.053 131.111 137.927  0.00  0.00    +0.000 C 
ATOM     18  C   UNL     1     111.667 130.805 138.387  0.00  0.00    +0.000 C 
ATOM     19  C   UNL     1     111.176 131.267 137.127  0.00  0.00    +0.000 C 
ATOM     20  C   UNL     1     112.403 130.655 138.046  0.00  0.00    +0.000 C 
ATOM     21  C   UNL     1     112.525 130.812 137.245  0.00  0.00    +0.000 C 
BRANCH  21  23
ATOM     22  O   UNL     1     113.650 131.257 136.484  0.00  0.00    +0.000 OA
ATOM     23  C   UNL     1     113.261 130.662 136.903  0.00  0.00    +0.000 C 
ENDBRANCH  21  23
BRANCH  17  24
ATOM     24  O   UNL     1     110.317 131.260 138.269  0.00  0.00    +0.000 OA
BRANCH  24  29
ATOM     25  O   UNL     1     110.080 129.892 138.608  0.00  0.00    +0.000 OA
ATOM     26  O   UNL     1     109.391 131.738 139.548  0.00  0.00    +0.000 OA
ATOM     27  O   UNL     1     108.692 130.609 140.527  0.00  0.00    +0.000 OA
ATOM     28  O   UNL     1     108.917 129.002 140.226  0.00  0.00    +0.000 OA
ATOM     29  C   UNL     1     109.967 130.695 138.758  0.00  0.00    +0.000 C 
ATOM     30  C   UNL     1     109.504 130.934 139.398  0.00  0.00    +0.000 C 
ATOM     31  C   UNL     1     109.154 130.370 139.887  0.00  0.00    +0.000 C 
ATOM     32  C   UNL     1     109.267 129.567 139.736  0.00  0.00    +0.000 C 
ATOM     33  C   UNL     1     109.730 129.328 139.096  0.00  0.00    +0.000 C 
ATOM     34  C   UNL     1     109.843 128.524 138.947  0.00  0.00    +0.000 C 
ENDBRANCH  24  29
ENDBRANCH  17  24
ENDBRANCH   5  19
BRANCH  12  35
ATOM     35  C   UNL     1     110.295 128.992 135.343  0.00  0.00    +0.000 A 
ATOM     36  C   UNL     1     110.775 127.426 135.151  0.00  0.00    +0.000 A 
ATOM     37  C   UNL     1     109.858 128.382 135.686  0.00  0.00    +0.000 A 
ATOM     38  C   UNL     1     110.972 128.819 134.904  0.00  0.00    +0.000 A 
ATOM     39  C   UNL     1     110.098 127.599 135.589  0.00  0.00    +0.000 A 
ATOM     40  C   UNL     1     111.212 128.036 134.808  0.00  0.00    +0.000 A 
BRANCH  36  41
ATOM     41  O   UNL     1     111.015 126.641 135.055  0.00  0.00    +0.000 OA
BRANCH  41  50
ATOM     42  O   UNL     1     111.944 126.641 136.140  0.00  0.00    +0.000 OA
ATOM     43  O   UNL     1     111.407 124.270 136.600  0.00  0.00    +0.000 OA
ATOM     44  O   UNL     1     112.516 125.060 137.533  0.00  0.00    +0.000 OA
ATOM     45  O   UNL     1     110.657 125.061 135.361  0.00  0.00    +0.000 OA
ATOM     46  C   UNL     1     111.586 125.060 136.447  0.00  0.00    +0.000 C 
ATOM     47  C   UNL     1     112.141 125.456 136.913  0.00  0.00    +0.000 C 
ATOM     48  C   UNL     1     111.211 125.455 135.828  0.00  0.00    +0.000 C 
ATOM     49  C   UNL     1     112.320 126.246 136.760  0.00  0.00    +0.000 C 
ATOM     50  C   UNL     1     111.390 126.246 135.674  0.00  0.00    +0.000 C 
BRANCH  49  52
ATOM     51  O   UNL     1     113.493 127.054 136.871  0.00  0.00    +0.000 OA
ATOM     52  C   UNL     1     112.874 126.641 137.226  0.00  0.00    +0.000 C 
ENDBRANCH  49  52
ENDBRANCH  41  50
ENDBRANCH  36  41
ENDBRANCH  12  35
TORSDOF 8
ENDMDL
MODEL 6
REMARK VINA RESULT:     -10.8      1.749      4.563
REMARK  Name = 44257755
REMARK  8 active torsions:
REMARK  status: ('A' for Active; 'I' for Inactive)
REMARK    1  A    between atoms: O_1  and  C_20
REMARK    2  A    between atoms: O_1  and  C_25
REMARK    3  A    between atoms: O_13  and  C_40
REMARK    4  A    between atoms: O_13  and  C_48
REMARK    5  A    between atoms: C_22  and  C_30
REMARK    6  A    between atoms: C_24  and  C_31
REMARK    7  A    between atoms: C_39  and  C_44
REMARK    8  A    between atoms: C_45  and  C_47
REMARK                            x       y       z     vdW  Elec       q    Type
REMARK                         _______ _______ _______ _____ _____    ______ ____
ROOT
ATOM      1  O   UNL     1     112.082 126.871 137.398  0.00  0.00    +0.000 OA
ATOM      2  O   UNL     1     111.353 126.969 134.612  0.00  0.00    +0.000 OA
ATOM      3  O   UNL     1     110.870 124.582 136.107  0.00  0.00    +0.000 OA
ATOM      4  O   UNL     1     111.221 124.493 137.504  0.00  0.00    +0.000 OA
ATOM      5  C   UNL     1     111.709 126.907 135.994  0.00  0.00    +0.000 A 
ATOM      6  C   UNL     1     111.748 126.489 136.704  0.00  0.00    +0.000 A 
ATOM      7  C   UNL     1     111.391 126.550 135.322  0.00  0.00    +0.000 A 
ATOM      8  C   UNL     1     111.468 125.713 136.742  0.00  0.00    +0.000 A 
ATOM      9  C   UNL     1     111.112 125.776 135.360  0.00  0.00    +0.000 A 
ATOM     10  C   UNL     1     111.150 125.356 136.069  0.00  0.00    +0.000 A 
ATOM     11  C   UNL     1     111.503 125.267 137.475  0.00  0.00    +0.000 A 
ATOM     12  C   UNL     1     112.125 126.440 138.140  0.00  0.00    +0.000 A 
ATOM     13  C   UNL     1     111.833 125.633 138.179  0.00  0.00    +0.000 A 
ENDROOT
BRANCH   5  19
ATOM     14  O   UNL     1     112.801 127.830 135.987  0.00  0.00    +0.000 OA
ATOM     15  O   UNL     1     111.206 129.712 135.783  0.00  0.00    +0.000 OA
ATOM     16  O   UNL     1     112.828 130.008 135.845  0.00  0.00    +0.000 OA
ATOM     17  C   UNL     1     111.458 128.310 135.889  0.00  0.00    +0.000 C 
ATOM     18  C   UNL     1     111.738 129.085 135.851  0.00  0.00    +0.000 C 
ATOM     19  C   UNL     1     111.990 127.683 135.957  0.00  0.00    +0.000 C 
ATOM     20  C   UNL     1     112.549 129.233 135.882  0.00  0.00    +0.000 C 
ATOM     21  C   UNL     1     113.080 128.605 135.950  0.00  0.00    +0.000 C 
BRANCH  21  23
ATOM     22  O   UNL     1     114.414 128.276 135.555  0.00  0.00    +0.000 OA
ATOM     23  C   UNL     1     113.891 128.753 135.981  0.00  0.00    +0.000 C 
ENDBRANCH  21  23
BRANCH  17  24
ATOM     24  O   UNL     1     110.647 128.162 135.858  0.00  0.00    +0.000 OA
BRANCH  24  29
ATOM     25  O   UNL     1     110.329 128.872 137.057  0.00  0.00    +0.000 OA
ATOM     26  O   UNL     1     109.197 128.610 135.209  0.00  0.00    +0.000 OA
ATOM     27  O   UNL     1     108.155 129.544 136.084  0.00  0.00    +0.000 OA
ATOM     28  O   UNL     1     108.563 130.030 137.607  0.00  0.00    +0.000 OA
ATOM     29  C   UNL     1     110.126 128.629 136.296  0.00  0.00    +0.000 C 
ATOM     30  C   UNL     1     109.401 128.853 135.971  0.00  0.00    +0.000 C 
ATOM     31  C   UNL     1     108.880 129.320 136.408  0.00  0.00    +0.000 C 
ATOM     32  C   UNL     1     109.084 129.562 137.170  0.00  0.00    +0.000 C 
ATOM     33  C   UNL     1     109.809 129.338 137.494  0.00  0.00    +0.000 C 
ATOM     34  C   UNL     1     110.012 129.582 138.256  0.00  0.00    +0.000 C 
ENDBRANCH  24  29
ENDBRANCH  17  24
ENDBRANCH   5  19
BRANCH  12  35
ATOM     35  C   UNL     1     112.444 126.800 138.811  0.00  0.00    +0.000 A 
ATOM     36  C   UNL     1     113.082 127.517 140.152  0.00  0.00    +0.000 A 
ATOM     37  C   UNL     1     111.948 127.175 139.353  0.00  0.00    +0.000 A 
ATOM     38  C   UNL     1     113.258 126.783 138.940  0.00  0.00    +0.000 A 
ATOM     39  C   UNL     1     112.268 127.534 140.024  0.00  0.00    +0.000 A 
ATOM     40  C   UNL     1     113.578 127.142 139.610  0.00  0.00    +0.000 A 
BRANCH  36  41
ATOM     41  O   UNL     1     113.401 127.877 140.823  0.00  0.00    +0.000 OA
BRANCH  41  50
ATOM     42  O   UNL     1     113.876 129.108 140.274  0.00  0.00    +0.000 OA
ATOM     43  O   UNL     1     112.831 130.346 142.145  0.00  0.00    +0.000 OA
ATOM     44  O   UNL     1     113.654 131.164 140.973  0.00  0.00    +0.000 OA
ATOM     45  O   UNL     1     112.704 128.702 142.070  0.00  0.00    +0.000 OA
ATOM     46  C   UNL     1     113.179 129.933 141.521  0.00  0.00    +0.000 C 
ATOM     47  C   UNL     1     113.591 130.342 140.935  0.00  0.00    +0.000 C 
ATOM     48  C   UNL     1     113.116 129.111 141.484  0.00  0.00    +0.000 C 
ATOM     49  C   UNL     1     113.939 129.929 140.311  0.00  0.00    +0.000 C 
ATOM     50  C   UNL     1     113.464 128.699 140.861  0.00  0.00    +0.000 C 
BRANCH  49  52
ATOM     51  O   UNL     1     114.080 130.328 138.946  0.00  0.00    +0.000 OA
ATOM     52  C   UNL     1     114.351 130.339 139.726  0.00  0.00    +0.000 C 
ENDBRANCH  49  52
ENDBRANCH  41  50
ENDBRANCH  36  41
ENDBRANCH  12  35
TORSDOF 8
ENDMDL
MODEL 7
REMARK VINA RESULT:     -10.8      1.912      4.922
REMARK  Name = 44257755
REMARK  8 active torsions:
REMARK  status: ('A' for Active; 'I' for Inactive)
REMARK    1  A    between atoms: O_1  and  C_20
REMARK    2  A    between atoms: O_1  and  C_25
REMARK    3  A    between atoms: O_13  and  C_40
REMARK    4  A    between atoms: O_13  and  C_48
REMARK    5  A    between atoms: C_22  and  C_30
REMARK    6  A    between atoms: C_24  and  C_31
REMARK    7  A    between atoms: C_39  and  C_44
REMARK    8  A    between atoms: C_45  and  C_47
REMARK                            x       y       z     vdW  Elec       q    Type
REMARK                         _______ _______ _______ _____ _____    ______ ____
ROOT
ATOM      1  O   UNL     1     113.232 129.328 136.344  0.00  0.00    +0.000 OA
ATOM      2  O   UNL     1     113.576 132.114 136.994  0.00  0.00    +0.000 OA
ATOM      3  O   UNL     1     115.437 130.841 135.237  0.00  0.00    +0.000 OA
ATOM      4  O   UNL     1     115.299 129.448 134.887  0.00  0.00    +0.000 OA
ATOM      5  C   UNL     1     113.417 130.733 136.663  0.00  0.00    +0.000 A 
ATOM      6  C   UNL     1     113.674 130.060 136.261  0.00  0.00    +0.000 A 
ATOM      7  C   UNL     1     113.833 131.442 136.591  0.00  0.00    +0.000 A 
ATOM      8  C   UNL     1     114.347 130.097 135.785  0.00  0.00    +0.000 A 
ATOM      9  C   UNL     1     114.506 131.477 136.115  0.00  0.00    +0.000 A 
ATOM     10  C   UNL     1     114.764 130.805 135.712  0.00  0.00    +0.000 A 
ATOM     11  C   UNL     1     114.625 129.403 135.361  0.00  0.00    +0.000 A 
ATOM     12  C   UNL     1     113.494 128.625 135.927  0.00  0.00    +0.000 A 
ATOM     13  C   UNL     1     114.195 128.662 135.432  0.00  0.00    +0.000 A 
ENDROOT
BRANCH   5  19
ATOM     14  O   UNL     1     111.995 130.669 136.793  0.00  0.00    +0.000 OA
ATOM     15  O   UNL     1     112.221 130.645 139.257  0.00  0.00    +0.000 OA
ATOM     16  O   UNL     1     110.724 130.588 138.565  0.00  0.00    +0.000 OA
ATOM     17  C   UNL     1     112.819 130.689 137.960  0.00  0.00    +0.000 C 
ATOM     18  C   UNL     1     112.145 130.653 138.436  0.00  0.00    +0.000 C 
ATOM     19  C   UNL     1     112.743 130.697 137.139  0.00  0.00    +0.000 C 
ATOM     20  C   UNL     1     111.397 130.625 138.090  0.00  0.00    +0.000 C 
ATOM     21  C   UNL     1     111.322 130.633 137.268  0.00  0.00    +0.000 C 
BRANCH  21  23
ATOM     22  O   UNL     1     110.445 130.960 136.188  0.00  0.00    +0.000 OA
ATOM     23  C   UNL     1     110.574 130.604 136.922  0.00  0.00    +0.000 C 
ENDBRANCH  21  23
BRANCH  17  24
ATOM     24  O   UNL     1     113.567 130.717 138.306  0.00  0.00    +0.000 OA
BRANCH  24  29
ATOM     25  O   UNL     1     113.444 129.458 138.971  0.00  0.00    +0.000 OA
ATOM     26  O   UNL     1     114.524 131.271 139.531  0.00  0.00    +0.000 OA
ATOM     27  O   UNL     1     114.880 130.289 140.809  0.00  0.00    +0.000 OA
ATOM     28  O   UNL     1     114.278 128.753 140.861  0.00  0.00    +0.000 OA
ATOM     29  C   UNL     1     113.745 130.226 138.945  0.00  0.00    +0.000 C 
ATOM     30  C   UNL     1     114.223 130.502 139.557  0.00  0.00    +0.000 C 
ATOM     31  C   UNL     1     114.401 130.012 140.196  0.00  0.00    +0.000 C 
ATOM     32  C   UNL     1     114.100 129.245 140.222  0.00  0.00    +0.000 C 
ATOM     33  C   UNL     1     113.622 128.968 139.610  0.00  0.00    +0.000 C 
ATOM     34  C   UNL     1     113.321 128.200 139.636  0.00  0.00    +0.000 C 
ENDBRANCH  24  29
ENDBRANCH  17  24
ENDBRANCH   5  19
BRANCH  12  35
ATOM     35  C   UNL     1     113.076 127.917 136.001  0.00  0.00    +0.000 A 
ATOM     36  C   UNL     1     112.239 126.504 136.149  0.00  0.00    +0.000 A 
ATOM     37  C   UNL     1     113.406 127.283 136.414  0.00  0.00    +0.000 A 
ATOM     38  C   UNL     1     112.327 127.844 135.663  0.00  0.00    +0.000 A 
ATOM     39  C   UNL     1     112.987 126.577 136.488  0.00  0.00    +0.000 A 
ATOM     40  C   UNL     1     111.908 127.137 135.737  0.00  0.00    +0.000 A 
BRANCH  36  41
ATOM     41  O   UNL     1     111.820 125.795 136.224  0.00  0.00    +0.000 OA
BRANCH  41  50
ATOM     42  O   UNL     1     111.020 126.148 137.355  0.00  0.00    +0.000 OA
ATOM     43  O   UNL     1     111.351 123.882 138.294  0.00  0.00    +0.000 OA
ATOM     44  O   UNL     1     110.441 124.989 139.112  0.00  0.00    +0.000 OA
ATOM     45  O   UNL     1     112.040 124.286 136.850  0.00  0.00    +0.000 OA
ATOM     46  C   UNL     1     111.241 124.638 137.981  0.00  0.00    +0.000 C 
ATOM     47  C   UNL     1     110.786 125.191 138.390  0.00  0.00    +0.000 C 
ATOM     48  C   UNL     1     111.585 124.839 137.259  0.00  0.00    +0.000 C 
ATOM     49  C   UNL     1     110.676 125.947 138.077  0.00  0.00    +0.000 C 
ATOM     50  C   UNL     1     111.475 125.594 136.946  0.00  0.00    +0.000 C 
BRANCH  49  52
ATOM     51  O   UNL     1     109.540 126.812 138.140  0.00  0.00    +0.000 OA
ATOM     52  C   UNL     1     110.221 126.500 138.486  0.00  0.00    +0.000 C 
ENDBRANCH  49  52
ENDBRANCH  41  50
ENDBRANCH  36  41
ENDBRANCH  12  35
TORSDOF 8
ENDMDL
MODEL 8
REMARK VINA RESULT:     -10.7      1.700      4.010
REMARK  Name = 44257755
REMARK  8 active torsions:
REMARK  status: ('A' for Active; 'I' for Inactive)
REMARK    1  A    between atoms: O_1  and  C_20
REMARK    2  A    between atoms: O_1  and  C_25
REMARK    3  A    between atoms: O_13  and  C_40
REMARK    4  A    between atoms: O_13  and  C_48
REMARK    5  A    between atoms: C_22  and  C_30
REMARK    6  A    between atoms: C_24  and  C_31
REMARK    7  A    between atoms: C_39  and  C_44
REMARK    8  A    between atoms: C_45  and  C_47
REMARK                            x       y       z     vdW  Elec       q    Type
REMARK                         _______ _______ _______ _____ _____    ______ ____
ROOT
ATOM      1  O   UNL     1     112.943 128.898 138.919  0.00  0.00    +0.000 OA
ATOM      2  O   UNL     1     114.003 127.179 140.975  0.00  0.00    +0.000 OA
ATOM      3  O   UNL     1     114.865 129.901 140.836  0.00  0.00    +0.000 OA
ATOM      4  O   UNL     1     114.359 130.793 139.822  0.00  0.00    +0.000 OA
ATOM      5  C   UNL     1     113.485 128.043 139.960  0.00  0.00    +0.000 A 
ATOM      6  C   UNL     1     113.456 128.783 139.599  0.00  0.00    +0.000 A 
ATOM      7  C   UNL     1     113.974 127.921 140.614  0.00  0.00    +0.000 A 
ATOM      8  C   UNL     1     113.917 129.403 139.891  0.00  0.00    +0.000 A 
ATOM      9  C   UNL     1     114.434 128.540 140.905  0.00  0.00    +0.000 A 
ATOM     10  C   UNL     1     114.406 129.282 140.544  0.00  0.00    +0.000 A 
ATOM     11  C   UNL     1     113.895 130.179 139.524  0.00  0.00    +0.000 A 
ATOM     12  C   UNL     1     112.909 129.668 138.539  0.00  0.00    +0.000 A 
ATOM     13  C   UNL     1     113.388 130.313 138.842  0.00  0.00    +0.000 A 
ENDROOT
BRANCH   5  19
ATOM     14  O   UNL     1     113.228 127.057 138.957  0.00  0.00    +0.000 OA
ATOM     15  O   UNL     1     111.236 126.297 140.214  0.00  0.00    +0.000 OA
ATOM     16  O   UNL     1     111.644 125.565 138.793  0.00  0.00    +0.000 OA
ATOM     17  C   UNL     1     112.361 127.170 140.087  0.00  0.00    +0.000 C 
ATOM     18  C   UNL     1     111.900 126.550 139.795  0.00  0.00    +0.000 C 
ATOM     19  C   UNL     1     113.025 127.423 139.668  0.00  0.00    +0.000 C 
ATOM     20  C   UNL     1     112.104 126.184 139.084  0.00  0.00    +0.000 C 
ATOM     21  C   UNL     1     112.768 126.438 138.666  0.00  0.00    +0.000 C 
BRANCH  21  23
ATOM     22  O   UNL     1     113.766 125.945 137.769  0.00  0.00    +0.000 OA
ATOM     23  C   UNL     1     112.972 126.072 137.955  0.00  0.00    +0.000 C 
ENDBRANCH  21  23
BRANCH  17  24
ATOM     24  O   UNL     1     112.157 127.536 140.798  0.00  0.00    +0.000 OA
BRANCH  24  29
ATOM     25  O   UNL     1     110.905 128.044 140.334  0.00  0.00    +0.000 OA
ATOM     26  O   UNL     1     111.523 127.357 142.311  0.00  0.00    +0.000 OA
ATOM     27  O   UNL     1     109.954 127.776 142.603  0.00  0.00    +0.000 OA
ATOM     28  O   UNL     1     109.019 128.373 141.382  0.00  0.00    +0.000 OA
ATOM     29  C   UNL     1     111.372 127.745 140.943  0.00  0.00    +0.000 C 
ATOM     30  C   UNL     1     111.055 127.656 141.700  0.00  0.00    +0.000 C 
ATOM     31  C   UNL     1     110.271 127.865 141.846  0.00  0.00    +0.000 C 
ATOM     32  C   UNL     1     109.804 128.164 141.236  0.00  0.00    +0.000 C 
ATOM     33  C   UNL     1     110.121 128.253 140.479  0.00  0.00    +0.000 C 
ATOM     34  C   UNL     1     109.653 128.552 139.869  0.00  0.00    +0.000 C 
ENDBRANCH  24  29
ENDBRANCH  17  24
ENDBRANCH   5  19
BRANCH  12  35
ATOM     35  C   UNL     1     112.419 129.787 137.885  0.00  0.00    +0.000 A 
ATOM     36  C   UNL     1     111.440 130.024 136.579  0.00  0.00    +0.000 A 
ATOM     37  C   UNL     1     111.727 130.229 137.963  0.00  0.00    +0.000 A 
ATOM     38  C   UNL     1     112.621 129.462 137.154  0.00  0.00    +0.000 A 
ATOM     39  C   UNL     1     111.238 130.348 137.310  0.00  0.00    +0.000 A 
ATOM     40  C   UNL     1     112.132 129.581 136.501  0.00  0.00    +0.000 A 
BRANCH  36  41
ATOM     41  O   UNL     1     110.950 130.143 135.925  0.00  0.00    +0.000 OA
BRANCH  41  50
ATOM     42  O   UNL     1     110.148 128.968 136.068  0.00  0.00    +0.000 OA
ATOM     43  O   UNL     1     108.140 130.260 135.416  0.00  0.00    +0.000 OA
ATOM     44  O   UNL     1     108.007 128.656 135.777  0.00  0.00    +0.000 OA
ATOM     45  O   UNL     1     109.612 131.003 135.490  0.00  0.00    +0.000 OA
ATOM     46  C   UNL     1     108.809 129.829 135.633  0.00  0.00    +0.000 C 
ATOM     47  C   UNL     1     108.743 129.027 135.814  0.00  0.00    +0.000 C 
ATOM     48  C   UNL     1     109.545 130.201 135.670  0.00  0.00    +0.000 C 
ATOM     49  C   UNL     1     109.413 128.596 136.031  0.00  0.00    +0.000 C 
ATOM     50  C   UNL     1     110.214 129.771 135.888  0.00  0.00    +0.000 C 
BRANCH  49  52
ATOM     51  O   UNL     1     109.934 127.267 135.974  0.00  0.00    +0.000 OA
ATOM     52  C   UNL     1     109.346 127.795 136.212  0.00  0.00    +0.000 C 
ENDBRANCH  49  52
ENDBRANCH  41  50
ENDBRANCH  36  41
ENDBRANCH  12  35
TORSDOF 8
ENDMDL
MODEL 9
REMARK VINA RESULT:     -10.7      1.563      2.970
REMARK  Name = 44257755
REMARK  8 active torsions:
REMARK  status: ('A' for Active; 'I' for Inactive)
REMARK    1  A    between atoms: O_1  and  C_20
REMARK    2  A    between atoms: O_1  and  C_25
REMARK    3  A    between atoms: O_13  and  C_40
REMARK    4  A    between atoms: O_13  and  C_48
REMARK    5  A    between atoms: C_22  and  C_30
REMARK    6  A    between atoms: C_24  and  C_31
REMARK    7  A    between atoms: C_39  and  C_44
REMARK    8  A    between atoms: C_45  and  C_47
REMARK                            x       y       z     vdW  Elec       q    Type
REMARK                         _______ _______ _______ _____ _____    ______ ____
ROOT
ATOM      1  O   UNL     1     111.973 127.347 136.594  0.00  0.00    +0.000 OA
ATOM      2  O   UNL     1     111.184 124.581 136.765  0.00  0.00    +0.000 OA
ATOM      3  O   UNL     1     113.960 125.243 136.609  0.00  0.00    +0.000 OA
ATOM      4  O   UNL     1     114.396 126.616 136.522  0.00  0.00    +0.000 OA
ATOM      5  C   UNL     1     111.590 125.948 136.680  0.00  0.00    +0.000 A 
ATOM      6  C   UNL     1     112.187 126.515 136.625  0.00  0.00    +0.000 A 
ATOM      7  C   UNL     1     111.783 125.147 136.711  0.00  0.00    +0.000 A 
ATOM      8  C   UNL     1     112.978 126.279 136.602  0.00  0.00    +0.000 A 
ATOM      9  C   UNL     1     112.572 124.912 136.687  0.00  0.00    +0.000 A 
ATOM     10  C   UNL     1     113.171 125.478 136.633  0.00  0.00    +0.000 A 
ATOM     11  C   UNL     1     113.608 126.859 136.545  0.00  0.00    +0.000 A 
ATOM     12  C   UNL     1     112.591 127.941 136.538  0.00  0.00    +0.000 A 
ATOM     13  C   UNL     1     113.414 127.696 136.513  0.00  0.00    +0.000 A 
ENDROOT
BRANCH   5  19
ATOM     14  O   UNL     1     110.424 126.441 136.015  0.00  0.00    +0.000 OA
ATOM     15  O   UNL     1     109.178 126.377 138.152  0.00  0.00    +0.000 OA
ATOM     16  O   UNL     1     108.428 126.890 136.775  0.00  0.00    +0.000 OA
ATOM     17  C   UNL     1     110.384 126.163 137.416  0.00  0.00    +0.000 C 
ATOM     18  C   UNL     1     109.593 126.398 137.439  0.00  0.00    +0.000 C 
ATOM     19  C   UNL     1     110.799 126.184 136.703  0.00  0.00    +0.000 C 
ATOM     20  C   UNL     1     109.218 126.655 136.751  0.00  0.00    +0.000 C 
ATOM     21  C   UNL     1     109.634 126.676 136.039  0.00  0.00    +0.000 C 
BRANCH  21  23
ATOM     22  O   UNL     1     109.476 126.616 134.619  0.00  0.00    +0.000 OA
ATOM     23  C   UNL     1     109.259 126.933 135.350  0.00  0.00    +0.000 C 
ENDBRANCH  21  23
BRANCH  17  24
ATOM     24  O   UNL     1     110.759 125.906 138.105  0.00  0.00    +0.000 OA
BRANCH  24  29
ATOM     25  O   UNL     1     110.624 127.129 138.830  0.00  0.00    +0.000 OA
ATOM     26  O   UNL     1     110.524 125.054 139.498  0.00  0.00    +0.000 OA
ATOM     27  O   UNL     1     110.271 125.851 140.920  0.00  0.00    +0.000 OA
ATOM     28  O   UNL     1     110.254 127.501 140.949  0.00  0.00    +0.000 OA
ATOM     29  C   UNL     1     110.632 126.305 138.816  0.00  0.00    +0.000 C 
ATOM     30  C   UNL     1     110.515 125.879 139.512  0.00  0.00    +0.000 C 
ATOM     31  C   UNL     1     110.389 126.277 140.224  0.00  0.00    +0.000 C 
ATOM     32  C   UNL     1     110.380 127.102 140.238  0.00  0.00    +0.000 C 
ATOM     33  C   UNL     1     110.498 127.528 139.541  0.00  0.00    +0.000 C 
ATOM     34  C   UNL     1     110.489 128.353 139.556  0.00  0.00    +0.000 C 
ENDBRANCH  24  29
ENDBRANCH  17  24
ENDBRANCH   5  19
BRANCH  12  35
ATOM     35  C   UNL     1     112.395 128.743 136.507  0.00  0.00    +0.000 A 
ATOM     36  C   UNL     1     112.004 130.344 136.447  0.00  0.00    +0.000 A 
ATOM     37  C   UNL     1     112.088 129.066 135.813  0.00  0.00    +0.000 A 
ATOM     38  C   UNL     1     112.507 129.219 137.170  0.00  0.00    +0.000 A 
ATOM     39  C   UNL     1     111.892 129.867 135.783  0.00  0.00    +0.000 A 
ATOM     40  C   UNL     1     112.312 130.020 137.141  0.00  0.00    +0.000 A 
BRANCH  36  41
ATOM     41  O   UNL     1     111.808 131.145 136.416  0.00  0.00    +0.000 OA
BRANCH  41  50
ATOM     42  O   UNL     1     110.440 130.960 136.786  0.00  0.00    +0.000 OA
ATOM     43  O   UNL     1     110.454 133.152 137.935  0.00  0.00    +0.000 OA
ATOM     44  O   UNL     1     109.082 132.237 137.922  0.00  0.00    +0.000 OA
ATOM     45  O   UNL     1     111.818 132.606 137.182  0.00  0.00    +0.000 OA
ATOM     46  C   UNL     1     110.450 132.421 137.552  0.00  0.00    +0.000 C 
ATOM     47  C   UNL     1     109.764 131.963 137.545  0.00  0.00    +0.000 C 
ATOM     48  C   UNL     1     111.131 132.149 137.176  0.00  0.00    +0.000 C 
ATOM     49  C   UNL     1     109.759 131.233 137.162  0.00  0.00    +0.000 C 
ATOM     50  C   UNL     1     111.127 131.418 136.792  0.00  0.00    +0.000 C 
BRANCH  49  52
ATOM     51  O   UNL     1     108.742 130.537 136.439  0.00  0.00    +0.000 OA
ATOM     52  C   UNL     1     109.073 130.776 137.156  0.00  0.00    +0.000 C 
ENDBRANCH  49  52
ENDBRANCH  41  50
ENDBRANCH  36  41
ENDBRANCH  12  35
TORSDOF 8
ENDMDL
MODEL 10
REMARK VINA RESULT:     -10.7      1.656      5.337
REMARK  Name = 44257755
REMARK  8 active torsions:
REMARK  status: ('A' for Active; 'I' for Inactive)
REMARK    1  A    between atoms: O_1  and  C_20
REMARK    2  A    between atoms: O_1  and  C_25
REMARK    3  A    between atoms: O_13  and  C_40
REMARK    4  A    between atoms: O_13  and  C_48
REMARK    5  A    between atoms: C_22  and  C_30
REMARK    6  A    between atoms: C_24  and  C_31
REMARK    7  A    between atoms: C_39  and  C_44
REMARK    8  A    between atoms: C_45  and  C_47
REMARK                            x       y       z     vdW  Elec       q    Type
REMARK                         _______ _______ _______ _____ _____    ______ ____
ROOT
ATOM      1  O   UNL     1     112.212 128.494 137.156  0.00  0.00    +0.000 OA
ATOM      2  O   UNL     1     110.779 127.959 134.715  0.00  0.00    +0.000 OA
ATOM      3  O   UNL     1     113.227 129.430 134.613  0.00  0.00    +0.000 OA
ATOM      4  O   UNL     1     113.974 129.718 135.813  0.00  0.00    +0.000 OA
ATOM      5  C   UNL     1     111.500 128.231 135.918  0.00  0.00    +0.000 A 
ATOM      6  C   UNL     1     112.148 128.567 136.302  0.00  0.00    +0.000 A 
ATOM      7  C   UNL     1     111.427 128.295 135.098  0.00  0.00    +0.000 A 
ATOM      8  C   UNL     1     112.724 128.967 135.867  0.00  0.00    +0.000 A 
ATOM      9  C   UNL     1     112.003 128.694 134.664  0.00  0.00    +0.000 A 
ATOM     10  C   UNL     1     112.651 129.030 135.047  0.00  0.00    +0.000 A 
ATOM     11  C   UNL     1     113.403 129.320 136.255  0.00  0.00    +0.000 A 
ATOM     12  C   UNL     1     112.885 128.841 137.561  0.00  0.00    +0.000 A 
ATOM     13  C   UNL     1     113.484 129.258 137.109  0.00  0.00    +0.000 A 
ENDROOT
BRANCH   5  19
ATOM     14  O   UNL     1     111.097 127.099 136.693  0.00  0.00    +0.000 OA
ATOM     15  O   UNL     1     108.850 128.097 136.980  0.00  0.00    +0.000 OA
ATOM     16  O   UNL     1     109.196 126.633 137.659  0.00  0.00    +0.000 OA
ATOM     17  C   UNL     1     110.175 128.164 136.449  0.00  0.00    +0.000 C 
ATOM     18  C   UNL     1     109.599 127.764 136.885  0.00  0.00    +0.000 C 
ATOM     19  C   UNL     1     110.923 127.831 136.353  0.00  0.00    +0.000 C 
ATOM     20  C   UNL     1     109.772 127.032 137.224  0.00  0.00    +0.000 C 
ATOM     21  C   UNL     1     110.521 126.700 137.128  0.00  0.00    +0.000 C 
BRANCH  21  23
ATOM     22  O   UNL     1     111.123 125.406 137.040  0.00  0.00    +0.000 OA
ATOM     23  C   UNL     1     110.694 125.969 137.467  0.00  0.00    +0.000 C 
ENDBRANCH  21  23
BRANCH  17  24
ATOM     24  O   UNL     1     110.002 128.896 136.109  0.00  0.00    +0.000 OA
BRANCH  24  29
ATOM     25  O   UNL     1     109.793 129.596 137.337  0.00  0.00    +0.000 OA
ATOM     26  O   UNL     1     108.804 129.782 135.400  0.00  0.00    +0.000 OA
ATOM     27  O   UNL     1     107.997 130.926 136.274  0.00  0.00    +0.000 OA
ATOM     28  O   UNL     1     108.387 131.183 137.856  0.00  0.00    +0.000 OA
ATOM     29  C   UNL     1     109.598 129.468 136.547  0.00  0.00    +0.000 C 
ATOM     30  C   UNL     1     108.999 129.911 136.192  0.00  0.00    +0.000 C 
ATOM     31  C   UNL     1     108.596 130.483 136.628  0.00  0.00    +0.000 C 
ATOM     32  C   UNL     1     108.791 130.611 137.419  0.00  0.00    +0.000 C 
ATOM     33  C   UNL     1     109.390 130.168 137.774  0.00  0.00    +0.000 C 
ATOM     34  C   UNL     1     109.585 130.297 138.565  0.00  0.00    +0.000 C 
ENDBRANCH  24  29
ENDBRANCH  17  24
ENDBRANCH   5  19
BRANCH  12  35
ATOM     35  C   UNL     1     112.955 128.776 138.382  0.00  0.00    +0.000 A 
ATOM     36  C   UNL     1     113.095 128.645 140.020  0.00  0.00    +0.000 A 
ATOM     37  C   UNL     1     112.697 129.391 138.868  0.00  0.00    +0.000 A 
ATOM     38  C   UNL     1     113.282 128.096 138.714  0.00  0.00    +0.000 A 
ATOM     39  C   UNL     1     112.767 129.325 139.687  0.00  0.00    +0.000 A 
ATOM     40  C   UNL     1     113.352 128.030 139.534  0.00  0.00    +0.000 A 
BRANCH  36  41
ATOM     41  O   UNL     1     113.165 128.579 140.840  0.00  0.00    +0.000 OA
BRANCH  41  50
ATOM     42  O   UNL     1     112.030 127.750 141.097  0.00  0.00    +0.000 OA
ATOM     43  O   UNL     1     111.464 129.136 143.068  0.00  0.00    +0.000 OA
ATOM     44  O   UNL     1     110.517 127.845 142.669  0.00  0.00    +0.000 OA
ATOM     45  O   UNL     1     112.788 129.503 142.153  0.00  0.00    +0.000 OA
ATOM     46  C   UNL     1     111.652 128.674 142.411  0.00  0.00    +0.000 C 
ATOM     47  C   UNL     1     111.179 128.029 142.211  0.00  0.00    +0.000 C 
ATOM     48  C   UNL     1     112.314 128.858 141.954  0.00  0.00    +0.000 C 
ATOM     49  C   UNL     1     111.368 127.566 141.554  0.00  0.00    +0.000 C 
ATOM     50  C   UNL     1     112.503 128.396 141.297  0.00  0.00    +0.000 C 
BRANCH  49  52
ATOM     51  O   UNL     1     111.219 126.164 141.326  0.00  0.00    +0.000 OA
ATOM     52  C   UNL     1     110.895 126.921 141.355  0.00  0.00    +0.000 C 
ENDBRANCH  49  52
ENDBRANCH  41  50
ENDBRANCH  36  41
ENDBRANCH  12  35
TORSDOF 8
ENDMDL
