MODEL 1
REMARK VINA RESULT:      -8.2      0.000      0.000
REMARK  Name = 13983760
REMARK  5 active torsions:
REMARK  status: ('A' for Active; 'I' for Inactive)
REMARK    1  A    between atoms: O_2  and  C_14
REMARK    2  A    between atoms: O_3  and  C_16
REMARK    3  A    between atoms: O_5  and  C_22
REMARK    4  A    between atoms: O_7  and  C_24
REMARK    5  A    between atoms: C_12  and  C_13
REMARK                            x       y       z     vdW  Elec       q    Type
REMARK                         _______ _______ _______ _____ _____    ______ ____
ROOT
ATOM      1  O   UNL     1     105.603 124.477 147.707  0.00  0.00    +0.000 OA
ATOM      2  O   UNL     1     108.017 125.738 146.742  0.00  0.00    +0.000 OA
ATOM      3  O   UNL     1     106.831 125.674 145.923  0.00  0.00    +0.000 OA
ATOM      4  O   UNL     1     107.959 124.568 149.417  0.00  0.00    +0.000 OA
ATOM      5  C   UNL     1     106.797 125.100 147.231  0.00  0.00    +0.000 A 
ATOM      6  C   UNL     1     106.388 124.701 147.826  0.00  0.00    +0.000 A 
ATOM      7  C   UNL     1     105.227 124.651 146.994  0.00  0.00    +0.000 A 
ATOM      8  C   UNL     1     105.636 125.051 146.399  0.00  0.00    +0.000 A 
ATOM      9  C   UNL     1     106.422 125.275 146.518  0.00  0.00    +0.000 A 
ATOM     10  C   UNL     1     106.768 124.513 148.574  0.00  0.00    +0.000 A 
ATOM     11  C   UNL     1     107.616 125.340 147.342  0.00  0.00    +0.000 A 
ATOM     12  C   UNL     1     107.586 124.744 148.703  0.00  0.00    +0.000 A 
ATOM     13  C   UNL     1     108.012 125.160 148.083  0.00  0.00    +0.000 A 
ENDROOT
BRANCH   7  15
ATOM     14  O   UNL     1     103.309 122.869 145.849  0.00  0.00    +0.000 OA
ATOM     15  C   UNL     1     104.443 124.427 146.875  0.00  0.00    +0.000 A 
ATOM     16  C   UNL     1     103.831 124.869 147.210  0.00  0.00    +0.000 A 
ATOM     17  C   UNL     1     104.268 123.761 146.422  0.00  0.00    +0.000 A 
ATOM     18  C   UNL     1     103.047 124.645 147.091  0.00  0.00    +0.000 A 
ATOM     19  C   UNL     1     103.483 123.536 146.302  0.00  0.00    +0.000 A 
ATOM     20  C   UNL     1     102.873 123.979 146.637  0.00  0.00    +0.000 A 
BRANCH  18  21
ATOM     21  O   UNL     1     102.436 125.087 147.426  0.00  0.00    +0.000 OA
ATOM     22  C   UNL     1     102.607 125.692 147.959  0.00  0.00    +0.000 C 
ENDBRANCH  18  21
BRANCH  20  23
ATOM     23  O   UNL     1     102.087 123.754 146.518  0.00  0.00    +0.000 OA
ATOM     24  C   UNL     1     101.819 123.026 146.800  0.00  0.00    +0.000 C 
ENDBRANCH  20  23
ENDBRANCH   7  15
BRANCH   8  25
ATOM     25  O   UNL     1     105.261 125.226 145.686  0.00  0.00    +0.000 OA
ATOM     26  C   UNL     1     105.609 125.753 145.155  0.00  0.00    +0.000 C 
ENDBRANCH   8  25
BRANCH  10  27
ATOM     27  O   UNL     1     106.351 124.114 149.163  0.00  0.00    +0.000 OA
ATOM     28  C   UNL     1     106.726 123.531 149.610  0.00  0.00    +0.000 C 
ENDBRANCH  10  27
TORSDOF 5
ENDMDL
MODEL 2
REMARK VINA RESULT:      -7.9     12.890     13.823
REMARK  Name = 13983760
REMARK  5 active torsions:
REMARK  status: ('A' for Active; 'I' for Inactive)
REMARK    1  A    between atoms: O_2  and  C_14
REMARK    2  A    between atoms: O_3  and  C_16
REMARK    3  A    between atoms: O_5  and  C_22
REMARK    4  A    between atoms: O_7  and  C_24
REMARK    5  A    between atoms: C_12  and  C_13
REMARK                            x       y       z     vdW  Elec       q    Type
REMARK                         _______ _______ _______ _____ _____    ______ ____
ROOT
ATOM      1  O   UNL     1     113.027 126.486 136.814  0.00  0.00    +0.000 OA
ATOM      2  O   UNL     1     111.002 124.735 135.729  0.00  0.00    +0.000 OA
ATOM      3  O   UNL     1     110.907 126.166 135.578  0.00  0.00    +0.000 OA
ATOM      4  O   UNL     1     113.284 123.606 137.158  0.00  0.00    +0.000 OA
ATOM      5  C   UNL     1     112.027 125.620 136.278  0.00  0.00    +0.000 A 
ATOM      6  C   UNL     1     112.733 125.726 136.690  0.00  0.00    +0.000 A 
ATOM      7  C   UNL     1     112.615 127.141 136.526  0.00  0.00    +0.000 A 
ATOM      8  C   UNL     1     111.909 127.034 136.114  0.00  0.00    +0.000 A 
ATOM      9  C   UNL     1     111.614 126.273 135.990  0.00  0.00    +0.000 A 
ATOM     10  C   UNL     1     113.172 125.053 136.995  0.00  0.00    +0.000 A 
ATOM     11  C   UNL     1     111.709 124.832 136.142  0.00  0.00    +0.000 A 
ATOM     12  C   UNL     1     112.870 124.258 136.869  0.00  0.00    +0.000 A 
ATOM     13  C   UNL     1     112.134 124.147 136.439  0.00  0.00    +0.000 A 
ENDROOT
BRANCH   7  15
ATOM     14  O   UNL     1     112.775 129.502 138.129  0.00  0.00    +0.000 OA
ATOM     15  C   UNL     1     112.910 127.901 136.650  0.00  0.00    +0.000 A 
ATOM     16  C   UNL     1     113.418 128.243 136.098  0.00  0.00    +0.000 A 
ATOM     17  C   UNL     1     112.695 128.321 137.327  0.00  0.00    +0.000 A 
ATOM     18  C   UNL     1     113.712 129.003 136.222  0.00  0.00    +0.000 A 
ATOM     19  C   UNL     1     112.989 129.082 137.452  0.00  0.00    +0.000 A 
ATOM     20  C   UNL     1     113.498 129.422 136.899  0.00  0.00    +0.000 A 
BRANCH  18  21
ATOM     21  O   UNL     1     114.221 129.344 135.669  0.00  0.00    +0.000 OA
ATOM     22  C   UNL     1     114.661 128.866 135.161  0.00  0.00    +0.000 C 
ENDBRANCH  18  21
BRANCH  20  23
ATOM     23  O   UNL     1     113.792 130.184 137.023  0.00  0.00    +0.000 OA
ATOM     24  C   UNL     1     113.286 130.834 136.984  0.00  0.00    +0.000 C 
ENDBRANCH  20  23
ENDBRANCH   7  15
BRANCH   8  25
ATOM     25  O   UNL     1     111.496 127.688 135.826  0.00  0.00    +0.000 OA
ATOM     26  C   UNL     1     110.892 127.584 135.273  0.00  0.00    +0.000 C 
ENDBRANCH   8  25
BRANCH  10  27
ATOM     27  O   UNL     1     113.878 125.169 137.406  0.00  0.00    +0.000 OA
ATOM     28  C   UNL     1     114.559 124.766 137.175  0.00  0.00    +0.000 C 
ENDBRANCH  10  27
TORSDOF 5
ENDMDL
MODEL 3
REMARK VINA RESULT:      -7.9     11.931     13.233
REMARK  Name = 13983760
REMARK  5 active torsions:
REMARK  status: ('A' for Active; 'I' for Inactive)
REMARK    1  A    between atoms: O_2  and  C_14
REMARK    2  A    between atoms: O_3  and  C_16
REMARK    3  A    between atoms: O_5  and  C_22
REMARK    4  A    between atoms: O_7  and  C_24
REMARK    5  A    between atoms: C_12  and  C_13
REMARK                            x       y       z     vdW  Elec       q    Type
REMARK                         _______ _______ _______ _____ _____    ______ ____
ROOT
ATOM      1  O   UNL     1     112.492 126.372 136.547  0.00  0.00    +0.000 OA
ATOM      2  O   UNL     1     111.764 123.605 136.150  0.00  0.00    +0.000 OA
ATOM      3  O   UNL     1     110.893 124.672 135.722  0.00  0.00    +0.000 OA
ATOM      4  O   UNL     1     114.300 124.270 137.436  0.00  0.00    +0.000 OA
ATOM      5  C   UNL     1     112.133 125.004 136.351  0.00  0.00    +0.000 A 
ATOM      6  C   UNL     1     112.666 125.571 136.626  0.00  0.00    +0.000 A 
ATOM      7  C   UNL     1     111.785 126.609 136.193  0.00  0.00    +0.000 A 
ATOM      8  C   UNL     1     111.252 126.042 135.918  0.00  0.00    +0.000 A 
ATOM      9  C   UNL     1     111.426 125.239 135.997  0.00  0.00    +0.000 A 
ATOM     10  C   UNL     1     113.406 125.337 136.996  0.00  0.00    +0.000 A 
ATOM     11  C   UNL     1     112.302 124.164 136.427  0.00  0.00    +0.000 A 
ATOM     12  C   UNL     1     113.592 124.503 137.081  0.00  0.00    +0.000 A 
ATOM     13  C   UNL     1     113.037 123.912 136.795  0.00  0.00    +0.000 A 
ENDROOT
BRANCH   7  15
ATOM     14  O   UNL     1     111.896 129.028 134.675  0.00  0.00    +0.000 OA
ATOM     15  C   UNL     1     111.610 127.411 136.114  0.00  0.00    +0.000 A 
ATOM     16  C   UNL     1     111.206 127.807 136.714  0.00  0.00    +0.000 A 
ATOM     17  C   UNL     1     111.841 127.818 135.434  0.00  0.00    +0.000 A 
ATOM     18  C   UNL     1     111.032 128.609 136.635  0.00  0.00    +0.000 A 
ATOM     19  C   UNL     1     111.666 128.621 135.355  0.00  0.00    +0.000 A 
ATOM     20  C   UNL     1     111.262 129.016 135.956  0.00  0.00    +0.000 A 
BRANCH  18  21
ATOM     21  O   UNL     1     110.628 129.005 137.236  0.00  0.00    +0.000 OA
ATOM     22  C   UNL     1     110.709 128.761 138.019  0.00  0.00    +0.000 C 
ENDBRANCH  18  21
BRANCH  20  23
ATOM     23  O   UNL     1     111.088 129.819 135.876  0.00  0.00    +0.000 OA
ATOM     24  C   UNL     1     110.506 130.065 135.345  0.00  0.00    +0.000 C 
ENDBRANCH  20  23
ENDBRANCH   7  15
BRANCH   8  25
ATOM     25  O   UNL     1     110.545 126.277 135.564  0.00  0.00    +0.000 OA
ATOM     26  C   UNL     1     110.144 125.762 135.060  0.00  0.00    +0.000 C 
ENDBRANCH   8  25
BRANCH  10  27
ATOM     27  O   UNL     1     113.932 125.911 137.268  0.00  0.00    +0.000 OA
ATOM     28  C   UNL     1     114.205 125.884 138.046  0.00  0.00    +0.000 C 
ENDBRANCH  10  27
TORSDOF 5
ENDMDL
MODEL 4
REMARK VINA RESULT:      -7.8      1.166      4.363
REMARK  Name = 13983760
REMARK  5 active torsions:
REMARK  status: ('A' for Active; 'I' for Inactive)
REMARK    1  A    between atoms: O_2  and  C_14
REMARK    2  A    between atoms: O_3  and  C_16
REMARK    3  A    between atoms: O_5  and  C_22
REMARK    4  A    between atoms: O_7  and  C_24
REMARK    5  A    between atoms: C_12  and  C_13
REMARK                            x       y       z     vdW  Elec       q    Type
REMARK                         _______ _______ _______ _____ _____    ______ ____
ROOT
ATOM      1  O   UNL     1     103.495 124.258 147.236  0.00  0.00    +0.000 OA
ATOM      2  O   UNL     1     102.152 122.817 145.123  0.00  0.00    +0.000 OA
ATOM      3  O   UNL     1     103.529 123.224 144.988  0.00  0.00    +0.000 OA
ATOM      4  O   UNL     1     100.713 123.469 147.579  0.00  0.00    +0.000 OA
ATOM      5  C   UNL     1     102.830 123.546 146.192  0.00  0.00    +0.000 A 
ATOM      6  C   UNL     1     102.819 123.890 146.942  0.00  0.00    +0.000 A 
ATOM      7  C   UNL     1     104.184 124.282 146.782  0.00  0.00    +0.000 A 
ATOM      8  C   UNL     1     104.195 123.937 146.033  0.00  0.00    +0.000 A 
ATOM      9  C   UNL     1     103.518 123.569 145.737  0.00  0.00    +0.000 A 
ATOM     10  C   UNL     1     102.108 123.873 147.424  0.00  0.00    +0.000 A 
ATOM     11  C   UNL     1     102.131 123.159 145.873  0.00  0.00    +0.000 A 
ATOM     12  C   UNL     1     101.400 123.491 147.123  0.00  0.00    +0.000 A 
ATOM     13  C   UNL     1     101.412 123.132 146.341  0.00  0.00    +0.000 A 
ENDROOT
BRANCH   7  15
ATOM     14  O   UNL     1     106.635 124.148 148.245  0.00  0.00    +0.000 OA
ATOM     15  C   UNL     1     104.860 124.649 147.077  0.00  0.00    +0.000 A 
ATOM     16  C   UNL     1     104.989 125.452 146.936  0.00  0.00    +0.000 A 
ATOM     17  C   UNL     1     105.409 124.214 147.513  0.00  0.00    +0.000 A 
ATOM     18  C   UNL     1     105.666 125.820 147.230  0.00  0.00    +0.000 A 
ATOM     19  C   UNL     1     106.087 124.582 147.809  0.00  0.00    +0.000 A 
ATOM     20  C   UNL     1     106.214 125.385 147.667  0.00  0.00    +0.000 A 
BRANCH  18  21
ATOM     21  O   UNL     1     105.795 126.622 147.089  0.00  0.00    +0.000 OA
ATOM     22  C   UNL     1     105.155 127.131 146.983  0.00  0.00    +0.000 C 
ENDBRANCH  18  21
BRANCH  20  23
ATOM     23  O   UNL     1     106.892 125.753 147.962  0.00  0.00    +0.000 OA
ATOM     24  C   UNL     1     107.637 125.517 147.699  0.00  0.00    +0.000 C 
ENDBRANCH  20  23
ENDBRANCH   7  15
BRANCH   8  25
ATOM     25  O   UNL     1     104.883 123.960 145.578  0.00  0.00    +0.000 OA
ATOM     26  C   UNL     1     104.835 123.925 144.755  0.00  0.00    +0.000 C 
ENDBRANCH   8  25
BRANCH  10  27
ATOM     27  O   UNL     1     102.106 124.220 148.173  0.00  0.00    +0.000 OA
ATOM     28  C   UNL     1     101.505 124.745 148.381  0.00  0.00    +0.000 C 
ENDBRANCH  10  27
TORSDOF 5
ENDMDL
MODEL 5
REMARK VINA RESULT:      -7.8      0.931      4.538
REMARK  Name = 13983760
REMARK  5 active torsions:
REMARK  status: ('A' for Active; 'I' for Inactive)
REMARK    1  A    between atoms: O_2  and  C_14
REMARK    2  A    between atoms: O_3  and  C_16
REMARK    3  A    between atoms: O_5  and  C_22
REMARK    4  A    between atoms: O_7  and  C_24
REMARK    5  A    between atoms: C_12  and  C_13
REMARK                            x       y       z     vdW  Elec       q    Type
REMARK                         _______ _______ _______ _____ _____    ______ ____
ROOT
ATOM      1  O   UNL     1     103.963 124.230 146.960  0.00  0.00    +0.000 OA
ATOM      2  O   UNL     1     101.438 125.324 147.838  0.00  0.00    +0.000 OA
ATOM      3  O   UNL     1     102.682 125.983 148.149  0.00  0.00    +0.000 OA
ATOM      4  O   UNL     1     101.488 122.845 146.296  0.00  0.00    +0.000 OA
ATOM      5  C   UNL     1     102.714 124.770 147.393  0.00  0.00    +0.000 A 
ATOM      6  C   UNL     1     103.140 124.186 146.997  0.00  0.00    +0.000 A 
ATOM      7  C   UNL     1     104.360 124.859 147.318  0.00  0.00    +0.000 A 
ATOM      8  C   UNL     1     103.933 125.443 147.715  0.00  0.00    +0.000 A 
ATOM      9  C   UNL     1     103.109 125.399 147.752  0.00  0.00    +0.000 A 
ATOM     10  C   UNL     1     102.739 123.526 146.619  0.00  0.00    +0.000 A 
ATOM     11  C   UNL     1     101.855 124.736 147.440  0.00  0.00    +0.000 A 
ATOM     12  C   UNL     1     101.882 123.475 146.655  0.00  0.00    +0.000 A 
ATOM     13  C   UNL     1     101.437 124.084 147.068  0.00  0.00    +0.000 A 
ENDROOT
BRANCH   7  15
ATOM     14  O   UNL     1     106.918 124.423 148.514  0.00  0.00    +0.000 OA
ATOM     15  C   UNL     1     105.182 124.903 147.281  0.00  0.00    +0.000 A 
ATOM     16  C   UNL     1     105.549 125.209 146.608  0.00  0.00    +0.000 A 
ATOM     17  C   UNL     1     105.638 124.641 147.916  0.00  0.00    +0.000 A 
ATOM     18  C   UNL     1     106.371 125.253 146.571  0.00  0.00    +0.000 A 
ATOM     19  C   UNL     1     106.462 124.685 147.879  0.00  0.00    +0.000 A 
ATOM     20  C   UNL     1     106.828 124.991 147.206  0.00  0.00    +0.000 A 
BRANCH  18  21
ATOM     21  O   UNL     1     106.739 125.559 145.898  0.00  0.00    +0.000 OA
ATOM     22  C   UNL     1     106.285 125.809 145.257  0.00  0.00    +0.000 C 
ENDBRANCH  18  21
BRANCH  20  23
ATOM     23  O   UNL     1     107.652 125.035 147.169  0.00  0.00    +0.000 OA
ATOM     24  C   UNL     1     108.070 125.439 147.755  0.00  0.00    +0.000 C 
ENDBRANCH  20  23
ENDBRANCH   7  15
BRANCH   8  25
ATOM     25  O   UNL     1     104.328 126.071 148.073  0.00  0.00    +0.000 OA
ATOM     26  C   UNL     1     103.912 126.747 148.299  0.00  0.00    +0.000 C 
ENDBRANCH   8  25
BRANCH  10  27
ATOM     27  O   UNL     1     103.174 122.947 146.225  0.00  0.00    +0.000 OA
ATOM     28  C   UNL     1     103.009 122.774 145.436  0.00  0.00    +0.000 C 
ENDBRANCH  10  27
TORSDOF 5
ENDMDL
MODEL 6
REMARK VINA RESULT:      -7.7     10.965     13.216
REMARK  Name = 13983760
REMARK  5 active torsions:
REMARK  status: ('A' for Active; 'I' for Inactive)
REMARK    1  A    between atoms: O_2  and  C_14
REMARK    2  A    between atoms: O_3  and  C_16
REMARK    3  A    between atoms: O_5  and  C_22
REMARK    4  A    between atoms: O_7  and  C_24
REMARK    5  A    between atoms: C_12  and  C_13
REMARK                            x       y       z     vdW  Elec       q    Type
REMARK                         _______ _______ _______ _____ _____    ______ ____
ROOT
ATOM      1  O   UNL     1     110.707 127.212 135.893  0.00  0.00    +0.000 OA
ATOM      2  O   UNL     1     112.099 129.584 135.009  0.00  0.00    +0.000 OA
ATOM      3  O   UNL     1     112.815 128.469 135.577  0.00  0.00    +0.000 OA
ATOM      4  O   UNL     1     109.194 129.425 134.755  0.00  0.00    +0.000 OA
ATOM      5  C   UNL     1     111.394 128.385 135.455  0.00  0.00    +0.000 A 
ATOM      6  C   UNL     1     110.691 127.966 135.560  0.00  0.00    +0.000 A 
ATOM      7  C   UNL     1     111.425 126.875 136.120  0.00  0.00    +0.000 A 
ATOM      8  C   UNL     1     112.128 127.294 136.015  0.00  0.00    +0.000 A 
ATOM      9  C   UNL     1     112.112 128.050 135.682  0.00  0.00    +0.000 A 
ATOM     10  C   UNL     1     109.936 128.306 135.328  0.00  0.00    +0.000 A 
ATOM     11  C   UNL     1     111.391 129.173 135.110  0.00  0.00    +0.000 A 
ATOM     12  C   UNL     1     109.914 129.092 134.981  0.00  0.00    +0.000 A 
ATOM     13  C   UNL     1     110.646 129.528 134.872  0.00  0.00    +0.000 A 
ENDROOT
BRANCH   7  15
ATOM     14  O   UNL     1     111.644 124.042 135.817  0.00  0.00    +0.000 OA
ATOM     15  C   UNL     1     111.441 126.121 136.452  0.00  0.00    +0.000 A 
ATOM     16  C   UNL     1     111.362 126.027 137.268  0.00  0.00    +0.000 A 
ATOM     17  C   UNL     1     111.535 125.460 135.968  0.00  0.00    +0.000 A 
ATOM     18  C   UNL     1     111.378 125.273 137.600  0.00  0.00    +0.000 A 
ATOM     19  C   UNL     1     111.550 124.704 136.301  0.00  0.00    +0.000 A 
ATOM     20  C   UNL     1     111.472 124.611 137.117  0.00  0.00    +0.000 A 
BRANCH  18  21
ATOM     21  O   UNL     1     111.300 125.179 138.416  0.00  0.00    +0.000 OA
ATOM     22  C   UNL     1     110.877 125.732 138.857  0.00  0.00    +0.000 C 
ENDBRANCH  18  21
BRANCH  20  23
ATOM     23  O   UNL     1     111.488 123.855 137.449  0.00  0.00    +0.000 OA
ATOM     24  C   UNL     1     112.113 123.343 137.280  0.00  0.00    +0.000 C 
ENDBRANCH  20  23
ENDBRANCH   7  15
BRANCH   8  25
ATOM     25  O   UNL     1     112.846 126.959 136.242  0.00  0.00    +0.000 OA
ATOM     26  C   UNL     1     113.497 127.442 136.396  0.00  0.00    +0.000 C 
ENDBRANCH   8  25
BRANCH  10  27
ATOM     27  O   UNL     1     109.238 127.879 135.437  0.00  0.00    +0.000 OA
ATOM     28  C   UNL     1     108.599 128.229 135.824  0.00  0.00    +0.000 C 
ENDBRANCH  10  27
TORSDOF 5
ENDMDL
MODEL 7
REMARK VINA RESULT:      -7.6     11.667     13.785
REMARK  Name = 13983760
REMARK  5 active torsions:
REMARK  status: ('A' for Active; 'I' for Inactive)
REMARK    1  A    between atoms: O_2  and  C_14
REMARK    2  A    between atoms: O_3  and  C_16
REMARK    3  A    between atoms: O_5  and  C_22
REMARK    4  A    between atoms: O_7  and  C_24
REMARK    5  A    between atoms: C_12  and  C_13
REMARK                            x       y       z     vdW  Elec       q    Type
REMARK                         _______ _______ _______ _____ _____    ______ ____
ROOT
ATOM      1  O   UNL     1     113.516 127.902 136.393  0.00  0.00    +0.000 OA
ATOM      2  O   UNL     1     113.003 130.257 137.985  0.00  0.00    +0.000 OA
ATOM      3  O   UNL     1     112.432 128.980 138.338  0.00  0.00    +0.000 OA
ATOM      4  O   UNL     1     114.703 130.446 135.619  0.00  0.00    +0.000 OA
ATOM      5  C   UNL     1     113.263 129.067 137.179  0.00  0.00    +0.000 A 
ATOM      6  C   UNL     1     113.625 128.707 136.531  0.00  0.00    +0.000 A 
ATOM      7  C   UNL     1     113.047 127.455 136.903  0.00  0.00    +0.000 A 
ATOM      8  C   UNL     1     112.685 127.814 137.551  0.00  0.00    +0.000 A 
ATOM      9  C   UNL     1     112.793 128.621 137.690  0.00  0.00    +0.000 A 
ATOM     10  C   UNL     1     114.117 129.162 135.992  0.00  0.00    +0.000 A 
ATOM     11  C   UNL     1     113.368 129.906 137.334  0.00  0.00    +0.000 A 
ATOM     12  C   UNL     1     114.233 130.002 136.130  0.00  0.00    +0.000 A 
ATOM     13  C   UNL     1     113.856 130.377 136.807  0.00  0.00    +0.000 A 
ENDROOT
BRANCH   7  15
ATOM     14  O   UNL     1     111.507 125.320 135.790  0.00  0.00    +0.000 OA
ATOM     15  C   UNL     1     112.938 126.649 136.765  0.00  0.00    +0.000 A 
ATOM     16  C   UNL     1     113.491 126.104 137.044  0.00  0.00    +0.000 A 
ATOM     17  C   UNL     1     112.277 126.388 136.347  0.00  0.00    +0.000 A 
ATOM     18  C   UNL     1     113.383 125.298 136.906  0.00  0.00    +0.000 A 
ATOM     19  C   UNL     1     112.168 125.581 136.208  0.00  0.00    +0.000 A 
ATOM     20  C   UNL     1     112.721 125.037 136.488  0.00  0.00    +0.000 A 
BRANCH  18  21
ATOM     21  O   UNL     1     113.935 124.753 137.186  0.00  0.00    +0.000 OA
ATOM     22  C   UNL     1     114.724 124.975 137.279  0.00  0.00    +0.000 C 
ENDBRANCH  18  21
BRANCH  20  23
ATOM     23  O   UNL     1     112.612 124.230 136.350  0.00  0.00    +0.000 OA
ATOM     24  C   UNL     1     112.024 123.818 136.756  0.00  0.00    +0.000 C 
ENDBRANCH  20  23
ENDBRANCH   7  15
BRANCH   8  25
ATOM     25  O   UNL     1     112.215 127.368 138.062  0.00  0.00    +0.000 OA
ATOM     26  C   UNL     1     112.093 127.621 138.838  0.00  0.00    +0.000 C 
ENDBRANCH   8  25
BRANCH  10  27
ATOM     27  O   UNL     1     114.474 128.794 135.346  0.00  0.00    +0.000 OA
ATOM     28  C   UNL     1     114.489 129.172 134.613  0.00  0.00    +0.000 C 
ENDBRANCH  10  27
TORSDOF 5
ENDMDL
MODEL 8
REMARK VINA RESULT:      -7.6     12.628     14.051
REMARK  Name = 13983760
REMARK  5 active torsions:
REMARK  status: ('A' for Active; 'I' for Inactive)
REMARK    1  A    between atoms: O_2  and  C_14
REMARK    2  A    between atoms: O_3  and  C_16
REMARK    3  A    between atoms: O_5  and  C_22
REMARK    4  A    between atoms: O_7  and  C_24
REMARK    5  A    between atoms: C_12  and  C_13
REMARK                            x       y       z     vdW  Elec       q    Type
REMARK                         _______ _______ _______ _____ _____    ______ ____
ROOT
ATOM      1  O   UNL     1     111.846 127.364 135.916  0.00  0.00    +0.000 OA
ATOM      2  O   UNL     1     111.722 124.547 136.544  0.00  0.00    +0.000 OA
ATOM      3  O   UNL     1     112.696 125.407 137.170  0.00  0.00    +0.000 OA
ATOM      4  O   UNL     1     109.853 125.688 134.612  0.00  0.00    +0.000 OA
ATOM      5  C   UNL     1     111.784 125.971 136.225  0.00  0.00    +0.000 A 
ATOM      6  C   UNL     1     111.501 126.624 135.807  0.00  0.00    +0.000 A 
ATOM      7  C   UNL     1     112.475 127.454 136.442  0.00  0.00    +0.000 A 
ATOM      8  C   UNL     1     112.758 126.801 136.860  0.00  0.00    +0.000 A 
ATOM      9  C   UNL     1     112.413 126.060 136.752  0.00  0.00    +0.000 A 
ATOM     10  C   UNL     1     110.846 126.544 135.256  0.00  0.00    +0.000 A 
ATOM     11  C   UNL     1     111.432 125.193 136.122  0.00  0.00    +0.000 A 
ATOM     12  C   UNL     1     110.482 125.774 135.139  0.00  0.00    +0.000 A 
ATOM     13  C   UNL     1     110.777 125.094 135.575  0.00  0.00    +0.000 A 
ENDROOT
BRANCH   7  15
ATOM     14  O   UNL     1     112.565 129.968 137.798  0.00  0.00    +0.000 OA
ATOM     15  C   UNL     1     112.821 128.194 136.551  0.00  0.00    +0.000 A 
ATOM     16  C   UNL     1     113.467 128.420 136.090  0.00  0.00    +0.000 A 
ATOM     17  C   UNL     1     112.520 128.710 137.120  0.00  0.00    +0.000 A 
ATOM     18  C   UNL     1     113.812 129.161 136.198  0.00  0.00    +0.000 A 
ATOM     19  C   UNL     1     112.866 129.452 137.229  0.00  0.00    +0.000 A 
ATOM     20  C   UNL     1     113.512 129.677 136.768  0.00  0.00    +0.000 A 
BRANCH  18  21
ATOM     21  O   UNL     1     114.459 129.387 135.738  0.00  0.00    +0.000 OA
ATOM     22  C   UNL     1     114.532 129.111 134.965  0.00  0.00    +0.000 C 
ENDBRANCH  18  21
BRANCH  20  23
ATOM     23  O   UNL     1     113.858 130.419 136.877  0.00  0.00    +0.000 OA
ATOM     24  C   UNL     1     114.212 130.607 137.598  0.00  0.00    +0.000 C 
ENDBRANCH  20  23
ENDBRANCH   7  15
BRANCH   8  25
ATOM     25  O   UNL     1     113.387 126.890 137.387  0.00  0.00    +0.000 OA
ATOM     26  C   UNL     1     113.481 126.358 138.011  0.00  0.00    +0.000 C 
ENDBRANCH   8  25
BRANCH  10  27
ATOM     27  O   UNL     1     110.569 127.202 134.842  0.00  0.00    +0.000 OA
ATOM     28  C   UNL     1     109.774 127.414 134.891  0.00  0.00    +0.000 C 
ENDBRANCH  10  27
TORSDOF 5
ENDMDL
MODEL 9
REMARK VINA RESULT:      -7.4     10.157     12.299
REMARK  Name = 13983760
REMARK  5 active torsions:
REMARK  status: ('A' for Active; 'I' for Inactive)
REMARK    1  A    between atoms: O_2  and  C_14
REMARK    2  A    between atoms: O_3  and  C_16
REMARK    3  A    between atoms: O_5  and  C_22
REMARK    4  A    between atoms: O_7  and  C_24
REMARK    5  A    between atoms: C_12  and  C_13
REMARK                            x       y       z     vdW  Elec       q    Type
REMARK                         _______ _______ _______ _____ _____    ______ ____
ROOT
ATOM      1  O   UNL     1     113.272 126.114 138.215  0.00  0.00    +0.000 OA
ATOM      2  O   UNL     1     111.138 124.356 137.379  0.00  0.00    +0.000 OA
ATOM      3  O   UNL     1     110.927 125.347 138.406  0.00  0.00    +0.000 OA
ATOM      4  O   UNL     1     113.771 124.137 136.135  0.00  0.00    +0.000 OA
ATOM      5  C   UNL     1     112.217 125.244 137.801  0.00  0.00    +0.000 A 
ATOM      6  C   UNL     1     112.999 125.500 137.737  0.00  0.00    +0.000 A 
ATOM      7  C   UNL     1     112.764 126.473 138.757  0.00  0.00    +0.000 A 
ATOM      8  C   UNL     1     111.982 126.217 138.821  0.00  0.00    +0.000 A 
ATOM      9  C   UNL     1     111.708 125.602 138.342  0.00  0.00    +0.000 A 
ATOM     10  C   UNL     1     113.539 125.134 137.177  0.00  0.00    +0.000 A 
ATOM     11  C   UNL     1     111.920 124.605 137.308  0.00  0.00    +0.000 A 
ATOM     12  C   UNL     1     113.260 124.494 136.676  0.00  0.00    +0.000 A 
ATOM     13  C   UNL     1     112.445 124.227 136.742  0.00  0.00    +0.000 A 
ENDROOT
BRANCH   7  15
ATOM     14  O   UNL     1     113.922 127.372 141.210  0.00  0.00    +0.000 OA
ATOM     15  C   UNL     1     113.037 127.087 139.235  0.00  0.00    +0.000 A 
ATOM     16  C   UNL     1     113.004 127.866 138.966  0.00  0.00    +0.000 A 
ATOM     17  C   UNL     1     113.343 126.922 139.983  0.00  0.00    +0.000 A 
ATOM     18  C   UNL     1     113.277 128.480 139.443  0.00  0.00    +0.000 A 
ATOM     19  C   UNL     1     113.616 127.536 140.462  0.00  0.00    +0.000 A 
ATOM     20  C   UNL     1     113.583 128.315 140.192  0.00  0.00    +0.000 A 
BRANCH  18  21
ATOM     21  O   UNL     1     113.244 129.259 139.174  0.00  0.00    +0.000 OA
ATOM     22  C   UNL     1     113.275 129.418 138.366  0.00  0.00    +0.000 C 
ENDBRANCH  18  21
BRANCH  20  23
ATOM     23  O   UNL     1     113.856 128.930 140.671  0.00  0.00    +0.000 OA
ATOM     24  C   UNL     1     113.394 129.201 141.298  0.00  0.00    +0.000 C 
ENDBRANCH  20  23
ENDBRANCH   7  15
BRANCH   8  25
ATOM     25  O   UNL     1     111.473 126.575 139.362  0.00  0.00    +0.000 OA
ATOM     26  C   UNL     1     110.661 126.433 139.322  0.00  0.00    +0.000 C 
ENDBRANCH   8  25
BRANCH  10  27
ATOM     27  O   UNL     1     114.319 125.396 137.120  0.00  0.00    +0.000 OA
ATOM     28  C   UNL     1     114.940 124.858 137.192  0.00  0.00    +0.000 C 
ENDBRANCH  10  27
TORSDOF 5
ENDMDL
