MODEL 1
REMARK VINA RESULT:      -9.9      0.000      0.000
REMARK  Name = 
REMARK  14 active torsions:
REMARK  status: ('A' for Active; 'I' for Inactive)
REMARK    1  A    between atoms: C_2  and  C_7
REMARK    2  A    between atoms: C_12  and  O_19
REMARK    3  A    between atoms: O_19  and  C_28
REMARK    4  A    between atoms: C_25  and  O_32
REMARK    5  A    between atoms: C_26  and  O_31
REMARK    6  A    between atoms: C_27  and  O_30
REMARK    7  A    between atoms: O_30  and  C_34
REMARK    8  A    between atoms: O_31  and  C_37
REMARK    9  A    between atoms: O_32  and  C_43
REMARK   10  A    between atoms: C_41  and  O_49
REMARK   11  A    between atoms: C_45  and  C_46
REMARK   12  A    between atoms: C_46  and  O_47
REMARK   13  A    between atoms: O_47  and  C_54
REMARK   14  A    between atoms: O_49  and  C_51
REMARK                            x       y       z     vdW  Elec       q    Type
REMARK                         _______ _______ _______ _____ _____    ______ ____
ROOT
ATOM      1  C   UNL     1     112.736 129.073 138.924  0.00  0.00    +0.000 C 
ATOM      2  C   UNL     1     112.808 129.095 137.863  0.00  0.00    +0.000 C 
ATOM      3  C   UNL     1     112.365 129.706 138.613  0.00  0.00    +0.000 C 
ATOM      4  C   UNL     1     111.803 130.570 138.874  0.00  0.00    +0.000 C 
ATOM      5  C   UNL     1     111.731 130.547 139.934  0.00  0.00    +0.000 C 
ATOM      6  O   UNL     1     112.174 129.936 139.186  0.00  0.00    +0.000 OA
ATOM      7  C   UNL     1     113.081 128.595 138.359  0.00  0.00    +0.000 C 
ENDROOT
BRANCH   5   8
ATOM      8  O   UNL     1     112.051 129.899 140.996  0.00  0.00    +0.000 OA
BRANCH   8  14
ATOM      9  C   UNL     1     111.043 129.535 142.493  0.00  0.00    +0.000 A 
ATOM     10  O   UNL     1     110.734 129.786 143.478  0.00  0.00    +0.000 OA
ATOM     11  C   UNL     1     111.124 130.654 143.951  0.00  0.00    +0.000 A 
ATOM     12  C   UNL     1     111.823 131.270 143.440  0.00  0.00    +0.000 A 
ATOM     13  C   UNL     1     112.132 131.019 142.455  0.00  0.00    +0.000 A 
ATOM     14  C   UNL     1     111.742 130.152 141.981  0.00  0.00    +0.000 A 
ATOM     15  C   UNL     1     110.815 130.906 144.938  0.00  0.00    +0.000 A 
ATOM     16  C   UNL     1     111.205 131.773 145.411  0.00  0.00    +0.000 A 
ATOM     17  C   UNL     1     111.904 132.390 144.899  0.00  0.00    +0.000 A 
ATOM     18  C   UNL     1     112.212 132.138 143.915  0.00  0.00    +0.000 A 
ATOM     19  O   UNL     1     112.731 131.547 142.017  0.00  0.00    +0.000 OA
ATOM     20  O   UNL     1     110.895 132.025 146.397  0.00  0.00    +0.000 OA
ATOM     21  O   UNL     1     112.798 132.654 143.486  0.00  0.00    +0.000 OA
BRANCH   9  23
ATOM     22  C   UNL     1     111.248 127.789 141.946  0.00  0.00    +0.000 A 
ATOM     23  C   UNL     1     110.653 128.667 142.019  0.00  0.00    +0.000 A 
ATOM     24  C   UNL     1     109.668 128.677 141.618  0.00  0.00    +0.000 A 
ATOM     25  C   UNL     1     109.279 127.809 141.145  0.00  0.00    +0.000 A 
ATOM     26  C   UNL     1     109.873 126.931 141.071  0.00  0.00    +0.000 A 
ATOM     27  C   UNL     1     110.858 126.921 141.472  0.00  0.00    +0.000 A 
ATOM     28  O   UNL     1     109.484 126.063 140.598  0.00  0.00    +0.000 OA
ATOM     29  O   UNL     1     108.294 127.819 140.744  0.00  0.00    +0.000 OA
ATOM     30  O   UNL     1     111.422 126.088 141.403  0.00  0.00    +0.000 OA
ENDBRANCH   9  23
ENDBRANCH   8  14
ENDBRANCH   5   8
BRANCH   4  31
ATOM     31  O   UNL     1     111.605 130.987 138.086  0.00  0.00    +0.000 OA
BRANCH  31  32
ATOM     32  C   UNL     1     111.422 131.361 137.406  0.00  0.00    +0.000 C 
ATOM     33  O   UNL     1     111.865 132.059 137.053  0.00  0.00    +0.000 OA
ATOM     34  C   UNL     1     110.792 131.268 136.789  0.00  0.00    +0.000 C 
ENDBRANCH  31  32
ENDBRANCH   4  31
BRANCH   3  35
ATOM     35  O   UNL     1     112.612 129.481 137.299  0.00  0.00    +0.000 OA
BRANCH  35  36
ATOM     36  C   UNL     1     113.186 129.782 136.670  0.00  0.00    +0.000 C 
ATOM     37  O   UNL     1     112.941 129.769 135.820  0.00  0.00    +0.000 OA
ATOM     38  C   UNL     1     114.011 130.114 136.735  0.00  0.00    +0.000 C 
ENDBRANCH  35  36
ENDBRANCH   3  35
BRANCH   2  39
ATOM     39  O   UNL     1     113.226 128.471 137.518  0.00  0.00    +0.000 OA
BRANCH  39  43
ATOM     40  C   UNL     1     112.626 124.960 136.392  0.00  0.00    +0.000 C 
ATOM     41  C   UNL     1     111.925 125.742 136.560  0.00  0.00    +0.000 C 
ATOM     42  C   UNL     1     112.506 126.576 136.871  0.00  0.00    +0.000 C 
ATOM     43  C   UNL     1     112.553 127.592 137.184  0.00  0.00    +0.000 C 
ATOM     44  O   UNL     1     113.255 126.810 137.016  0.00  0.00    +0.000 OA
ATOM     45  C   UNL     1     112.674 125.975 136.705  0.00  0.00    +0.000 C 
ATOM     46  O   UNL     1     112.184 124.332 136.157  0.00  0.00    +0.000 OA
ATOM     47  O   UNL     1     112.102 127.367 137.071  0.00  0.00    +0.000 OA
BRANCH  45  48
ATOM     48  C   UNL     1     113.167 125.517 136.615  0.00  0.00    +0.000 C 
BRANCH  48  49
ATOM     49  O   UNL     1     113.636 125.093 137.193  0.00  0.00    +0.000 OA
BRANCH  49  50
ATOM     50  C   UNL     1     114.542 125.015 136.742  0.00  0.00    +0.000 C 
ATOM     51  O   UNL     1     114.927 124.542 137.545  0.00  0.00    +0.000 OA
ATOM     52  C   UNL     1     114.846 125.209 136.092  0.00  0.00    +0.000 C 
ENDBRANCH  49  50
ENDBRANCH  48  49
ENDBRANCH  45  48
BRANCH  41  53
ATOM     53  O   UNL     1     111.828 124.830 136.273  0.00  0.00    +0.000 OA
BRANCH  53  54
ATOM     54  C   UNL     1     111.074 125.138 136.299  0.00  0.00    +0.000 C 
ATOM     55  O   UNL     1     110.628 125.380 136.899  0.00  0.00    +0.000 OA
ATOM     56  C   UNL     1     110.774 125.178 135.499  0.00  0.00    +0.000 C 
ENDBRANCH  53  54
ENDBRANCH  41  53
ENDBRANCH  39  43
ENDBRANCH   2  39
TORSDOF 14
ENDMDL
MODEL 2
REMARK VINA RESULT:      -9.6      1.280      1.531
REMARK  Name = 
REMARK  14 active torsions:
REMARK  status: ('A' for Active; 'I' for Inactive)
REMARK    1  A    between atoms: C_2  and  C_7
REMARK    2  A    between atoms: C_12  and  O_19
REMARK    3  A    between atoms: O_19  and  C_28
REMARK    4  A    between atoms: C_25  and  O_32
REMARK    5  A    between atoms: C_26  and  O_31
REMARK    6  A    between atoms: C_27  and  O_30
REMARK    7  A    between atoms: O_30  and  C_34
REMARK    8  A    between atoms: O_31  and  C_37
REMARK    9  A    between atoms: O_32  and  C_43
REMARK   10  A    between atoms: C_41  and  O_49
REMARK   11  A    between atoms: C_45  and  C_46
REMARK   12  A    between atoms: C_46  and  O_47
REMARK   13  A    between atoms: O_47  and  C_54
REMARK   14  A    between atoms: O_49  and  C_51
REMARK                            x       y       z     vdW  Elec       q    Type
REMARK                         _______ _______ _______ _____ _____    ______ ____
ROOT
ATOM      1  C   UNL     1     111.908 129.271 139.235  0.00  0.00    +0.000 C 
ATOM      2  C   UNL     1     112.129 129.435 138.207  0.00  0.00    +0.000 C 
ATOM      3  C   UNL     1     111.553 129.926 138.954  0.00  0.00    +0.000 C 
ATOM      4  C   UNL     1     110.914 130.729 139.235  0.00  0.00    +0.000 C 
ATOM      5  C   UNL     1     110.693 130.564 140.262  0.00  0.00    +0.000 C 
ATOM      6  O   UNL     1     111.270 130.073 139.517  0.00  0.00    +0.000 OA
ATOM      7  C   UNL     1     112.355 128.884 138.671  0.00  0.00    +0.000 C 
ENDROOT
BRANCH   5   8
ATOM      8  O   UNL     1     110.892 129.793 141.269  0.00  0.00    +0.000 OA
BRANCH   8  14
ATOM      9  C   UNL     1     109.766 128.776 142.310  0.00  0.00    +0.000 A 
ATOM     10  O   UNL     1     109.117 128.684 143.147  0.00  0.00    +0.000 OA
ATOM     11  C   UNL     1     108.947 129.520 143.781  0.00  0.00    +0.000 A 
ATOM     12  C   UNL     1     109.426 130.448 143.577  0.00  0.00    +0.000 A 
ATOM     13  C   UNL     1     110.074 130.538 142.740  0.00  0.00    +0.000 A 
ATOM     14  C   UNL     1     110.244 129.703 142.107  0.00  0.00    +0.000 A 
ATOM     15  C   UNL     1     108.299 129.429 144.618  0.00  0.00    +0.000 A 
ATOM     16  C   UNL     1     108.129 130.266 145.251  0.00  0.00    +0.000 A 
ATOM     17  C   UNL     1     108.607 131.193 145.048  0.00  0.00    +0.000 A 
ATOM     18  C   UNL     1     109.255 131.284 144.211  0.00  0.00    +0.000 A 
ATOM     19  O   UNL     1     110.484 131.333 142.566  0.00  0.00    +0.000 OA
ATOM     20  O   UNL     1     107.480 130.175 146.089  0.00  0.00    +0.000 OA
ATOM     21  O   UNL     1     109.656 132.060 144.041  0.00  0.00    +0.000 OA
BRANCH   9  23
ATOM     22  C   UNL     1     110.817 127.356 141.792  0.00  0.00    +0.000 A 
ATOM     23  C   UNL     1     109.936 127.939 141.676  0.00  0.00    +0.000 A 
ATOM     24  C   UNL     1     109.225 127.685 140.928  0.00  0.00    +0.000 A 
ATOM     25  C   UNL     1     109.395 126.850 140.295  0.00  0.00    +0.000 A 
ATOM     26  C   UNL     1     110.276 126.266 140.409  0.00  0.00    +0.000 A 
ATOM     27  C   UNL     1     110.987 126.519 141.158  0.00  0.00    +0.000 A 
ATOM     28  O   UNL     1     110.446 125.430 139.776  0.00  0.00    +0.000 OA
ATOM     29  O   UNL     1     108.684 126.596 139.546  0.00  0.00    +0.000 OA
ATOM     30  O   UNL     1     111.823 125.966 141.268  0.00  0.00    +0.000 OA
ENDBRANCH   9  23
ENDBRANCH   8  14
ENDBRANCH   5   8
BRANCH   4  31
ATOM     31  O   UNL     1     110.808 131.239 138.485  0.00  0.00    +0.000 OA
BRANCH  31  32
ATOM     32  C   UNL     1     110.708 131.696 137.840  0.00  0.00    +0.000 C 
ATOM     33  O   UNL     1     111.146 132.461 137.663  0.00  0.00    +0.000 OA
ATOM     34  C   UNL     1     110.196 131.658 137.116  0.00  0.00    +0.000 C 
ENDBRANCH  31  32
ENDBRANCH   4  31
BRANCH   3  35
ATOM     35  O   UNL     1     111.996 129.885 137.673  0.00  0.00    +0.000 OA
BRANCH  35  36
ATOM     36  C   UNL     1     112.642 130.280 137.181  0.00  0.00    +0.000 C 
ATOM     37  O   UNL     1     112.535 130.353 136.306  0.00  0.00    +0.000 OA
ATOM     38  C   UNL     1     113.425 130.637 137.414  0.00  0.00    +0.000 C 
ENDBRANCH  35  36
ENDBRANCH   3  35
BRANCH   2  39
ATOM     39  O   UNL     1     112.625 128.876 137.852  0.00  0.00    +0.000 OA
BRANCH  39  43
ATOM     40  C   UNL     1     112.389 125.439 136.410  0.00  0.00    +0.000 C 
ATOM     41  C   UNL     1     111.627 126.171 136.534  0.00  0.00    +0.000 C 
ATOM     42  C   UNL     1     112.110 127.005 136.980  0.00  0.00    +0.000 C 
ATOM     43  C   UNL     1     112.056 127.994 137.368  0.00  0.00    +0.000 C 
ATOM     44  O   UNL     1     112.818 127.263 137.244  0.00  0.00    +0.000 OA
ATOM     45  C   UNL     1     112.335 126.428 136.797  0.00  0.00    +0.000 C 
ATOM     46  O   UNL     1     112.020 124.810 136.072  0.00  0.00    +0.000 OA
ATOM     47  O   UNL     1     111.638 127.758 137.178  0.00  0.00    +0.000 OA
BRANCH  45  48
ATOM     48  C   UNL     1     112.861 126.003 136.743  0.00  0.00    +0.000 C 
BRANCH  48  49
ATOM     49  O   UNL     1     113.302 125.594 137.354  0.00  0.00    +0.000 OA
BRANCH  49  50
ATOM     50  C   UNL     1     114.239 125.544 136.967  0.00  0.00    +0.000 C 
ATOM     51  O   UNL     1     114.583 125.089 137.798  0.00  0.00    +0.000 OA
ATOM     52  C   UNL     1     114.581 125.744 136.338  0.00  0.00    +0.000 C 
ENDBRANCH  49  50
ENDBRANCH  48  49
ENDBRANCH  45  48
BRANCH  41  53
ATOM     53  O   UNL     1     111.623 125.280 136.173  0.00  0.00    +0.000 OA
BRANCH  53  54
ATOM     54  C   UNL     1     110.857 125.552 136.106  0.00  0.00    +0.000 C 
ATOM     55  O   UNL     1     110.325 125.757 136.647  0.00  0.00    +0.000 OA
ATOM     56  C   UNL     1     110.662 125.601 135.274  0.00  0.00    +0.000 C 
ENDBRANCH  53  54
ENDBRANCH  41  53
ENDBRANCH  39  43
ENDBRANCH   2  39
TORSDOF 14
ENDMDL
MODEL 3
REMARK VINA RESULT:      -9.2      0.911      1.888
REMARK  Name = 
REMARK  14 active torsions:
REMARK  status: ('A' for Active; 'I' for Inactive)
REMARK    1  A    between atoms: C_2  and  C_7
REMARK    2  A    between atoms: C_12  and  O_19
REMARK    3  A    between atoms: O_19  and  C_28
REMARK    4  A    between atoms: C_25  and  O_32
REMARK    5  A    between atoms: C_26  and  O_31
REMARK    6  A    between atoms: C_27  and  O_30
REMARK    7  A    between atoms: O_30  and  C_34
REMARK    8  A    between atoms: O_31  and  C_37
REMARK    9  A    between atoms: O_32  and  C_43
REMARK   10  A    between atoms: C_41  and  O_49
REMARK   11  A    between atoms: C_45  and  C_46
REMARK   12  A    between atoms: C_46  and  O_47
REMARK   13  A    between atoms: O_47  and  C_54
REMARK   14  A    between atoms: O_49  and  C_51
REMARK                            x       y       z     vdW  Elec       q    Type
REMARK                         _______ _______ _______ _____ _____    ______ ____
ROOT
ATOM      1  C   UNL     1     111.212 128.974 138.670  0.00  0.00    +0.000 C 
ATOM      2  C   UNL     1     111.569 128.897 137.671  0.00  0.00    +0.000 C 
ATOM      3  C   UNL     1     111.578 129.640 138.432  0.00  0.00    +0.000 C 
ATOM      4  C   UNL     1     111.854 130.615 138.754  0.00  0.00    +0.000 C 
ATOM      5  C   UNL     1     111.497 130.692 139.752  0.00  0.00    +0.000 C 
ATOM      6  O   UNL     1     111.487 129.948 138.993  0.00  0.00    +0.000 OA
ATOM      7  C   UNL     1     111.197 128.394 138.095  0.00  0.00    +0.000 C 
ENDROOT
BRANCH   5   8
ATOM      8  O   UNL     1     110.878 130.081 140.697  0.00  0.00    +0.000 OA
BRANCH   8  14
ATOM      9  C   UNL     1     111.054 129.363 142.383  0.00  0.00    +0.000 A 
ATOM     10  O   UNL     1     111.248 129.486 143.421  0.00  0.00    +0.000 OA
ATOM     11  C   UNL     1     111.460 130.452 143.809  0.00  0.00    +0.000 A 
ATOM     12  C   UNL     1     111.479 131.294 143.161  0.00  0.00    +0.000 A 
ATOM     13  C   UNL     1     111.285 131.170 142.124  0.00  0.00    +0.000 A 
ATOM     14  C   UNL     1     111.073 130.205 141.735  0.00  0.00    +0.000 A 
ATOM     15  C   UNL     1     111.654 130.576 144.848  0.00  0.00    +0.000 A 
ATOM     16  C   UNL     1     111.867 131.542 145.236  0.00  0.00    +0.000 A 
ATOM     17  C   UNL     1     111.885 132.384 144.588  0.00  0.00    +0.000 A 
ATOM     18  C   UNL     1     111.691 132.260 143.551  0.00  0.00    +0.000 A 
ATOM     19  O   UNL     1     111.301 131.892 141.568  0.00  0.00    +0.000 OA
ATOM     20  O   UNL     1     112.061 131.666 146.275  0.00  0.00    +0.000 OA
ATOM     21  O   UNL     1     111.707 132.965 143.008  0.00  0.00    +0.000 OA
BRANCH   9  23
ATOM     22  C   UNL     1     109.834 128.076 141.890  0.00  0.00    +0.000 A 
ATOM     23  C   UNL     1     110.842 128.396 141.994  0.00  0.00    +0.000 A 
ATOM     24  C   UNL     1     111.637 127.751 141.708  0.00  0.00    +0.000 A 
ATOM     25  C   UNL     1     111.425 126.786 141.319  0.00  0.00    +0.000 A 
ATOM     26  C   UNL     1     110.417 126.464 141.215  0.00  0.00    +0.000 A 
ATOM     27  C   UNL     1     109.621 127.109 141.501  0.00  0.00    +0.000 A 
ATOM     28  O   UNL     1     110.204 125.499 140.826  0.00  0.00    +0.000 OA
ATOM     29  O   UNL     1     112.220 126.141 141.034  0.00  0.00    +0.000 OA
ATOM     30  O   UNL     1     108.665 126.805 141.402  0.00  0.00    +0.000 OA
ENDBRANCH   9  23
ENDBRANCH   8  14
ENDBRANCH   5   8
BRANCH   4  31
ATOM     31  O   UNL     1     112.287 130.999 138.047  0.00  0.00    +0.000 OA
BRANCH  31  32
ATOM     32  C   UNL     1     112.677 131.339 137.440  0.00  0.00    +0.000 C 
ATOM     33  O   UNL     1     112.330 131.921 136.850  0.00  0.00    +0.000 OA
ATOM     34  C   UNL     1     113.506 131.298 137.125  0.00  0.00    +0.000 C 
ENDBRANCH  31  32
ENDBRANCH   4  31
BRANCH   3  35
ATOM     35  O   UNL     1     111.915 129.267 137.172  0.00  0.00    +0.000 OA
BRANCH  35  36
ATOM     36  C   UNL     1     111.607 129.404 136.334  0.00  0.00    +0.000 C 
ATOM     37  O   UNL     1     112.174 129.380 135.656  0.00  0.00    +0.000 OA
ATOM     38  C   UNL     1     110.786 129.570 136.028  0.00  0.00    +0.000 C 
ENDBRANCH  35  36
ENDBRANCH   3  35
BRANCH   2  39
ATOM     39  O   UNL     1     111.421 128.177 137.291  0.00  0.00    +0.000 OA
BRANCH  39  43
ATOM     40  C   UNL     1     112.993 124.826 136.796  0.00  0.00    +0.000 C 
ATOM     41  C   UNL     1     113.375 125.679 137.303  0.00  0.00    +0.000 C 
ATOM     42  C   UNL     1     112.617 126.420 137.212  0.00  0.00    +0.000 C 
ATOM     43  C   UNL     1     112.272 127.405 137.415  0.00  0.00    +0.000 C 
ATOM     44  O   UNL     1     111.891 126.552 136.908  0.00  0.00    +0.000 OA
ATOM     45  C   UNL     1     112.649 125.810 136.998  0.00  0.00    +0.000 C 
ATOM     46  O   UNL     1     113.568 124.269 136.866  0.00  0.00    +0.000 OA
ATOM     47  O   UNL     1     112.735 127.244 137.580  0.00  0.00    +0.000 OA
BRANCH  45  48
ATOM     48  C   UNL     1     112.354 125.300 136.663  0.00  0.00    +0.000 C 
BRANCH  48  49
ATOM     49  O   UNL     1     111.661 124.838 136.863  0.00  0.00    +0.000 OA
BRANCH  49  50
ATOM     50  C   UNL     1     111.220 124.681 135.962  0.00  0.00    +0.000 C 
ATOM     51  O   UNL     1     111.215 123.685 136.111  0.00  0.00    +0.000 OA
ATOM     52  C   UNL     1     110.980 125.096 135.392  0.00  0.00    +0.000 C 
ENDBRANCH  49  50
ENDBRANCH  48  49
ENDBRANCH  45  48
BRANCH  41  53
ATOM     53  O   UNL     1     113.732 124.801 137.146  0.00  0.00    +0.000 OA
BRANCH  53  54
ATOM     54  C   UNL     1     114.314 125.212 137.541  0.00  0.00    +0.000 C 
ATOM     55  O   UNL     1     114.333 125.534 138.258  0.00  0.00    +0.000 OA
ATOM     56  C   UNL     1     114.997 125.268 137.029  0.00  0.00    +0.000 C 
ENDBRANCH  53  54
ENDBRANCH  41  53
ENDBRANCH  39  43
ENDBRANCH   2  39
TORSDOF 14
ENDMDL
MODEL 4
REMARK VINA RESULT:      -9.2      2.225      3.663
REMARK  Name = 
REMARK  14 active torsions:
REMARK  status: ('A' for Active; 'I' for Inactive)
REMARK    1  A    between atoms: C_2  and  C_7
REMARK    2  A    between atoms: C_12  and  O_19
REMARK    3  A    between atoms: O_19  and  C_28
REMARK    4  A    between atoms: C_25  and  O_32
REMARK    5  A    between atoms: C_26  and  O_31
REMARK    6  A    between atoms: C_27  and  O_30
REMARK    7  A    between atoms: O_30  and  C_34
REMARK    8  A    between atoms: O_31  and  C_37
REMARK    9  A    between atoms: O_32  and  C_43
REMARK   10  A    between atoms: C_41  and  O_49
REMARK   11  A    between atoms: C_45  and  C_46
REMARK   12  A    between atoms: C_46  and  O_47
REMARK   13  A    between atoms: O_47  and  C_54
REMARK   14  A    between atoms: O_49  and  C_51
REMARK                            x       y       z     vdW  Elec       q    Type
REMARK                         _______ _______ _______ _____ _____    ______ ____
ROOT
ATOM      1  C   UNL     1     111.188 128.900 140.106  0.00  0.00    +0.000 C 
ATOM      2  C   UNL     1     111.531 128.062 139.549  0.00  0.00    +0.000 C 
ATOM      3  C   UNL     1     111.858 128.594 140.409  0.00  0.00    +0.000 C 
ATOM      4  C   UNL     1     112.564 128.717 141.195  0.00  0.00    +0.000 C 
ATOM      5  C   UNL     1     112.220 129.556 141.752  0.00  0.00    +0.000 C 
ATOM      6  O   UNL     1     111.893 129.024 140.891  0.00  0.00    +0.000 OA
ATOM      7  C   UNL     1     110.925 128.500 139.444  0.00  0.00    +0.000 C 
ENDROOT
BRANCH   5   8
ATOM      8  O   UNL     1     111.307 130.454 141.842  0.00  0.00    +0.000 OA
BRANCH   8  14
ATOM      9  C   UNL     1     110.110 130.917 143.162  0.00  0.00    +0.000 A 
ATOM     10  O   UNL     1     109.876 131.463 144.042  0.00  0.00    +0.000 OA
ATOM     11  C   UNL     1     110.607 132.095 144.485  0.00  0.00    +0.000 A 
ATOM     12  C   UNL     1     111.572 132.179 144.047  0.00  0.00    +0.000 A 
ATOM     13  C   UNL     1     111.805 131.632 143.166  0.00  0.00    +0.000 A 
ATOM     14  C   UNL     1     111.074 131.001 142.723  0.00  0.00    +0.000 A 
ATOM     15  C   UNL     1     110.374 132.642 145.366  0.00  0.00    +0.000 A 
ATOM     16  C   UNL     1     111.105 133.273 145.809  0.00  0.00    +0.000 A 
ATOM     17  C   UNL     1     112.070 133.357 145.371  0.00  0.00    +0.000 A 
ATOM     18  C   UNL     1     112.303 132.811 144.490  0.00  0.00    +0.000 A 
ATOM     19  O   UNL     1     112.632 131.705 142.791  0.00  0.00    +0.000 OA
ATOM     20  O   UNL     1     110.872 133.820 146.690  0.00  0.00    +0.000 OA
ATOM     21  O   UNL     1     113.111 132.882 144.123  0.00  0.00    +0.000 OA
BRANCH   9  23
ATOM     22  C   UNL     1     109.229 129.301 143.092  0.00  0.00    +0.000 A 
ATOM     23  C   UNL     1     109.378 130.285 142.719  0.00  0.00    +0.000 A 
ATOM     24  C   UNL     1     108.795 130.638 141.902  0.00  0.00    +0.000 A 
ATOM     25  C   UNL     1     108.064 130.006 141.460  0.00  0.00    +0.000 A 
ATOM     26  C   UNL     1     107.915 129.022 141.833  0.00  0.00    +0.000 A 
ATOM     27  C   UNL     1     108.497 128.670 142.649  0.00  0.00    +0.000 A 
ATOM     28  O   UNL     1     107.184 128.391 141.391  0.00  0.00    +0.000 OA
ATOM     29  O   UNL     1     107.481 130.359 140.644  0.00  0.00    +0.000 OA
ATOM     30  O   UNL     1     108.357 127.736 143.004  0.00  0.00    +0.000 OA
ENDBRANCH   9  23
ENDBRANCH   8  14
ENDBRANCH   5   8
BRANCH   4  31
ATOM     31  O   UNL     1     113.184 128.057 141.081  0.00  0.00    +0.000 OA
BRANCH  31  32
ATOM     32  C   UNL     1     113.736 127.489 140.989  0.00  0.00    +0.000 C 
ATOM     33  O   UNL     1     113.741 126.689 141.398  0.00  0.00    +0.000 OA
ATOM     34  C   UNL     1     114.480 127.408 140.512  0.00  0.00    +0.000 C 
ENDBRANCH  31  32
ENDBRANCH   4  31
BRANCH   3  35
ATOM     35  O   UNL     1     112.054 127.580 139.531  0.00  0.00    +0.000 OA
BRANCH  35  36
ATOM     36  C   UNL     1     111.906 126.689 139.502  0.00  0.00    +0.000 C 
ATOM     37  O   UNL     1     112.443 126.178 139.018  0.00  0.00    +0.000 OA
ATOM     38  C   UNL     1     111.283 126.181 139.888  0.00  0.00    +0.000 C 
ENDBRANCH  35  36
ENDBRANCH   3  35
BRANCH   2  39
ATOM     39  O   UNL     1     111.069 127.849 138.897  0.00  0.00    +0.000 OA
BRANCH  39  43
ATOM     40  C   UNL     1     110.620 128.849 135.326  0.00  0.00    +0.000 C 
ATOM     41  C   UNL     1     111.455 129.001 135.967  0.00  0.00    +0.000 C 
ATOM     42  C   UNL     1     111.176 128.567 136.897  0.00  0.00    +0.000 C 
ATOM     43  C   UNL     1     111.416 128.334 137.906  0.00  0.00    +0.000 C 
ATOM     44  O   UNL     1     110.581 128.182 137.265  0.00  0.00    +0.000 OA
ATOM     45  C   UNL     1     110.860 128.616 136.335  0.00  0.00    +0.000 C 
ATOM     46  O   UNL     1     110.834 129.178 134.625  0.00  0.00    +0.000 OA
ATOM     47  O   UNL     1     111.751 128.583 137.602  0.00  0.00    +0.000 OA
BRANCH  45  48
ATOM     48  C   UNL     1     110.299 128.491 135.975  0.00  0.00    +0.000 C 
BRANCH  48  49
ATOM     49  O   UNL     1     109.510 128.817 136.054  0.00  0.00    +0.000 OA
BRANCH  49  50
ATOM     50  C   UNL     1     108.912 128.040 135.792  0.00  0.00    +0.000 C 
ATOM     51  O   UNL     1     108.098 128.633 135.797  0.00  0.00    +0.000 OA
ATOM     52  C   UNL     1     108.993 127.315 135.646  0.00  0.00    +0.000 C 
ENDBRANCH  49  50
ENDBRANCH  48  49
ENDBRANCH  45  48
BRANCH  41  53
ATOM     53  O   UNL     1     111.286 129.234 135.050  0.00  0.00    +0.000 OA
BRANCH  53  54
ATOM     54  C   UNL     1     112.043 129.491 135.212  0.00  0.00    +0.000 C 
ATOM     55  O   UNL     1     112.318 130.020 135.724  0.00  0.00    +0.000 OA
ATOM     56  C   UNL     1     112.583 129.071 134.698  0.00  0.00    +0.000 C 
ENDBRANCH  53  54
ENDBRANCH  41  53
ENDBRANCH  39  43
ENDBRANCH   2  39
TORSDOF 14
ENDMDL
MODEL 5
REMARK VINA RESULT:      -9.2      1.484      3.932
REMARK  Name = 
REMARK  14 active torsions:
REMARK  status: ('A' for Active; 'I' for Inactive)
REMARK    1  A    between atoms: C_2  and  C_7
REMARK    2  A    between atoms: C_12  and  O_19
REMARK    3  A    between atoms: O_19  and  C_28
REMARK    4  A    between atoms: C_25  and  O_32
REMARK    5  A    between atoms: C_26  and  O_31
REMARK    6  A    between atoms: C_27  and  O_30
REMARK    7  A    between atoms: O_30  and  C_34
REMARK    8  A    between atoms: O_31  and  C_37
REMARK    9  A    between atoms: O_32  and  C_43
REMARK   10  A    between atoms: C_41  and  O_49
REMARK   11  A    between atoms: C_45  and  C_46
REMARK   12  A    between atoms: C_46  and  O_47
REMARK   13  A    between atoms: O_47  and  C_54
REMARK   14  A    between atoms: O_49  and  C_51
REMARK                            x       y       z     vdW  Elec       q    Type
REMARK                         _______ _______ _______ _____ _____    ______ ____
ROOT
ATOM      1  C   UNL     1     110.752 126.950 140.911  0.00  0.00    +0.000 C 
ATOM      2  C   UNL     1     110.093 126.209 140.526  0.00  0.00    +0.000 C 
ATOM      3  C   UNL     1     110.010 127.040 141.184  0.00  0.00    +0.000 C 
ATOM      4  C   UNL     1     109.410 127.650 141.816  0.00  0.00    +0.000 C 
ATOM      5  C   UNL     1     110.070 128.390 142.200  0.00  0.00    +0.000 C 
ATOM      6  O   UNL     1     110.153 127.560 141.542  0.00  0.00    +0.000 OA
ATOM      7  C   UNL     1     110.830 126.314 140.404  0.00  0.00    +0.000 C 
ENDROOT
BRANCH   5   8
ATOM      8  O   UNL     1     111.278 128.823 142.198  0.00  0.00    +0.000 OA
BRANCH   8  14
ATOM      9  C   UNL     1     111.931 130.506 141.839  0.00  0.00    +0.000 A 
ATOM     10  O   UNL     1     112.237 131.467 142.176  0.00  0.00    +0.000 OA
ATOM     11  C   UNL     1     112.194 131.704 143.211  0.00  0.00    +0.000 A 
ATOM     12  C   UNL     1     111.846 130.981 143.909  0.00  0.00    +0.000 A 
ATOM     13  C   UNL     1     111.541 130.021 143.571  0.00  0.00    +0.000 A 
ATOM     14  C   UNL     1     111.584 129.784 142.537  0.00  0.00    +0.000 A 
ATOM     15  C   UNL     1     112.499 132.665 143.549  0.00  0.00    +0.000 A 
ATOM     16  C   UNL     1     112.457 132.902 144.584  0.00  0.00    +0.000 A 
ATOM     17  C   UNL     1     112.109 132.179 145.281  0.00  0.00    +0.000 A 
ATOM     18  C   UNL     1     111.804 131.219 144.944  0.00  0.00    +0.000 A 
ATOM     19  O   UNL     1     111.243 129.402 144.169  0.00  0.00    +0.000 OA
ATOM     20  O   UNL     1     112.762 133.863 144.922  0.00  0.00    +0.000 OA
ATOM     21  O   UNL     1     111.512 130.614 145.528  0.00  0.00    +0.000 OA
BRANCH   9  23
ATOM     22  C   UNL     1     112.822 129.763 140.409  0.00  0.00    +0.000 A 
ATOM     23  C   UNL     1     111.974 130.269 140.803  0.00  0.00    +0.000 A 
ATOM     24  C   UNL     1     111.169 130.537 140.163  0.00  0.00    +0.000 A 
ATOM     25  C   UNL     1     111.212 130.299 139.128  0.00  0.00    +0.000 A 
ATOM     26  C   UNL     1     112.060 129.794 138.733  0.00  0.00    +0.000 A 
ATOM     27  C   UNL     1     112.865 129.526 139.374  0.00  0.00    +0.000 A 
ATOM     28  O   UNL     1     112.103 129.556 137.698  0.00  0.00    +0.000 OA
ATOM     29  O   UNL     1     110.408 130.567 138.487  0.00  0.00    +0.000 OA
ATOM     30  O   UNL     1     113.669 129.046 139.000  0.00  0.00    +0.000 OA
ENDBRANCH   9  23
ENDBRANCH   8  14
ENDBRANCH   5   8
BRANCH   4  31
ATOM     31  O   UNL     1     108.568 127.298 141.778  0.00  0.00    +0.000 OA
BRANCH  31  32
ATOM     32  C   UNL     1     107.828 127.004 141.752  0.00  0.00    +0.000 C 
ATOM     33  O   UNL     1     107.252 127.088 141.067  0.00  0.00    +0.000 OA
ATOM     34  C   UNL     1     107.318 126.533 142.305  0.00  0.00    +0.000 C 
ENDBRANCH  31  32
ENDBRANCH   4  31
BRANCH   3  35
ATOM     35  O   UNL     1     109.414 125.999 140.553  0.00  0.00    +0.000 OA
BRANCH  35  36
ATOM     36  C   UNL     1     109.117 125.174 140.768  0.00  0.00    +0.000 C 
ATOM     37  O   UNL     1     109.557 124.700 141.372  0.00  0.00    +0.000 OA
ATOM     38  C   UNL     1     108.419 124.702 140.474  0.00  0.00    +0.000 C 
ENDBRANCH  35  36
ENDBRANCH   3  35
BRANCH   2  39
ATOM     39  O   UNL     1     110.432 125.658 140.011  0.00  0.00    +0.000 OA
BRANCH  39  43
ATOM     40  C   UNL     1     111.188 125.253 136.376  0.00  0.00    +0.000 C 
ATOM     41  C   UNL     1     110.565 125.968 136.858  0.00  0.00    +0.000 C 
ATOM     42  C   UNL     1     110.624 125.736 137.894  0.00  0.00    +0.000 C 
ATOM     43  C   UNL     1     110.337 125.948 138.896  0.00  0.00    +0.000 C 
ATOM     44  O   UNL     1     110.959 125.233 138.414  0.00  0.00    +0.000 OA
ATOM     45  C   UNL     1     110.901 125.464 137.378  0.00  0.00    +0.000 C 
ATOM     46  O   UNL     1     111.141 125.431 135.594  0.00  0.00    +0.000 OA
ATOM     47  O   UNL     1     110.161 126.231 138.502  0.00  0.00    +0.000 OA
BRANCH  45  48
ATOM     48  C   UNL     1     111.310 124.984 137.127  0.00  0.00    +0.000 C 
BRANCH  48  49
ATOM     49  O   UNL     1     112.163 124.912 137.168  0.00  0.00    +0.000 OA
BRANCH  49  50
ATOM     50  C   UNL     1     112.312 123.908 137.149  0.00  0.00    +0.000 C 
ATOM     51  O   UNL     1     113.311 124.032 137.143  0.00  0.00    +0.000 OA
ATOM     52  C   UNL     1     111.890 123.295 137.140  0.00  0.00    +0.000 C 
ENDBRANCH  49  50
ENDBRANCH  48  49
ENDBRANCH  45  48
BRANCH  41  53
ATOM     53  O   UNL     1     110.794 125.819 135.937  0.00  0.00    +0.000 OA
BRANCH  53  54
ATOM     54  C   UNL     1     110.282 126.453 135.941  0.00  0.00    +0.000 C 
ATOM     55  O   UNL     1     110.340 127.170 136.258  0.00  0.00    +0.000 OA
ATOM     56  C   UNL     1     109.579 126.233 135.507  0.00  0.00    +0.000 C 
ENDBRANCH  53  54
ENDBRANCH  41  53
ENDBRANCH  39  43
ENDBRANCH   2  39
TORSDOF 14
ENDMDL
MODEL 6
REMARK VINA RESULT:      -9.2      5.771      9.352
REMARK  Name = 
REMARK  14 active torsions:
REMARK  status: ('A' for Active; 'I' for Inactive)
REMARK    1  A    between atoms: C_2  and  C_7
REMARK    2  A    between atoms: C_12  and  O_19
REMARK    3  A    between atoms: O_19  and  C_28
REMARK    4  A    between atoms: C_25  and  O_32
REMARK    5  A    between atoms: C_26  and  O_31
REMARK    6  A    between atoms: C_27  and  O_30
REMARK    7  A    between atoms: O_30  and  C_34
REMARK    8  A    between atoms: O_31  and  C_37
REMARK    9  A    between atoms: O_32  and  C_43
REMARK   10  A    between atoms: C_41  and  O_49
REMARK   11  A    between atoms: C_45  and  C_46
REMARK   12  A    between atoms: C_46  and  O_47
REMARK   13  A    between atoms: O_47  and  C_54
REMARK   14  A    between atoms: O_49  and  C_51
REMARK                            x       y       z     vdW  Elec       q    Type
REMARK                         _______ _______ _______ _____ _____    ______ ____
ROOT
ATOM      1  C   UNL     1     105.449 127.761 143.032  0.00  0.00    +0.000 C 
ATOM      2  C   UNL     1     105.973 126.840 142.944  0.00  0.00    +0.000 C 
ATOM      3  C   UNL     1     106.112 127.835 142.596  0.00  0.00    +0.000 C 
ATOM      4  C   UNL     1     106.690 128.540 142.049  0.00  0.00    +0.000 C 
ATOM      5  C   UNL     1     106.166 129.461 142.137  0.00  0.00    +0.000 C 
ATOM      6  O   UNL     1     106.026 128.466 142.485  0.00  0.00    +0.000 OA
ATOM      7  C   UNL     1     105.331 127.001 143.306  0.00  0.00    +0.000 C 
ENDROOT
BRANCH   5   8
ATOM      8  O   UNL     1     105.132 130.038 142.635  0.00  0.00    +0.000 OA
BRANCH   8  14
ATOM      9  C   UNL     1     104.965 131.681 143.449  0.00  0.00    +0.000 A 
ATOM     10  O   UNL     1     104.758 132.722 143.388  0.00  0.00    +0.000 OA
ATOM     11  C   UNL     1     104.512 133.160 142.452  0.00  0.00    +0.000 A 
ATOM     12  C   UNL     1     104.473 132.558 141.577  0.00  0.00    +0.000 A 
ATOM     13  C   UNL     1     104.679 131.518 141.638  0.00  0.00    +0.000 A 
ATOM     14  C   UNL     1     104.926 131.079 142.573  0.00  0.00    +0.000 A 
ATOM     15  C   UNL     1     104.305 134.201 142.391  0.00  0.00    +0.000 A 
ATOM     16  C   UNL     1     104.059 134.639 141.454  0.00  0.00    +0.000 A 
ATOM     17  C   UNL     1     104.019 134.037 140.579  0.00  0.00    +0.000 A 
ATOM     18  C   UNL     1     104.226 132.997 140.640  0.00  0.00    +0.000 A 
ATOM     19  O   UNL     1     104.645 131.002 140.888  0.00  0.00    +0.000 OA
ATOM     20  O   UNL     1     103.852 135.681 141.394  0.00  0.00    +0.000 OA
ATOM     21  O   UNL     1     104.193 132.493 139.908  0.00  0.00    +0.000 OA
BRANCH   9  23
ATOM     22  C   UNL     1     104.460 130.754 144.957  0.00  0.00    +0.000 A 
ATOM     23  C   UNL     1     105.212 131.242 144.385  0.00  0.00    +0.000 A 
ATOM     24  C   UNL     1     106.209 131.292 144.750  0.00  0.00    +0.000 A 
ATOM     25  C   UNL     1     106.455 130.853 145.686  0.00  0.00    +0.000 A 
ATOM     26  C   UNL     1     105.704 130.365 146.258  0.00  0.00    +0.000 A 
ATOM     27  C   UNL     1     104.707 130.315 145.894  0.00  0.00    +0.000 A 
ATOM     28  O   UNL     1     105.950 129.926 147.194  0.00  0.00    +0.000 OA
ATOM     29  O   UNL     1     107.452 130.903 146.050  0.00  0.00    +0.000 OA
ATOM     30  O   UNL     1     103.994 129.852 146.436  0.00  0.00    +0.000 OA
ENDBRANCH   9  23
ENDBRANCH   8  14
ENDBRANCH   5   8
BRANCH   4  31
ATOM     31  O   UNL     1     107.405 128.077 141.721  0.00  0.00    +0.000 OA
BRANCH  31  32
ATOM     32  C   UNL     1     108.037 127.686 141.431  0.00  0.00    +0.000 C 
ATOM     33  O   UNL     1     108.115 127.354 140.600  0.00  0.00    +0.000 OA
ATOM     34  C   UNL     1     108.827 127.443 141.754  0.00  0.00    +0.000 C 
ENDBRANCH  31  32
ENDBRANCH   4  31
BRANCH   3  35
ATOM     35  O   UNL     1     106.557 126.555 142.652  0.00  0.00    +0.000 OA
BRANCH  35  36
ATOM     36  C   UNL     1     106.557 125.828 142.116  0.00  0.00    +0.000 C 
ATOM     37  O   UNL     1     107.221 125.246 142.178  0.00  0.00    +0.000 OA
ATOM     38  C   UNL     1     105.983 125.556 141.490  0.00  0.00    +0.000 C 
ENDBRANCH  35  36
ENDBRANCH   3  35
BRANCH   2  39
ATOM     39  O   UNL     1     105.631 126.193 143.329  0.00  0.00    +0.000 OA
BRANCH  39  43
ATOM     40  C   UNL     1     105.697 124.520 146.668  0.00  0.00    +0.000 C 
ATOM     41  C   UNL     1     106.375 125.228 146.257  0.00  0.00    +0.000 C 
ATOM     42  C   UNL     1     105.996 125.450 145.289  0.00  0.00    +0.000 C 
ATOM     43  C   UNL     1     106.081 125.984 144.373  0.00  0.00    +0.000 C 
ATOM     44  O   UNL     1     105.403 125.276 144.784  0.00  0.00    +0.000 OA
ATOM     45  C   UNL     1     105.782 125.054 145.753  0.00  0.00    +0.000 C 
ATOM     46  O   UNL     1     105.987 124.355 147.399  0.00  0.00    +0.000 OA
ATOM     47  O   UNL     1     106.428 126.043 144.751  0.00  0.00    +0.000 OA
BRANCH  45  48
ATOM     48  C   UNL     1     105.317 124.606 145.961  0.00  0.00    +0.000 C 
BRANCH  48  49
ATOM     49  O   UNL     1     105.156 123.811 145.684  0.00  0.00    +0.000 OA
BRANCH  49  50
ATOM     50  C   UNL     1     104.160 123.706 145.850  0.00  0.00    +0.000 C 
ATOM     51  O   UNL     1     104.177 122.762 145.497  0.00  0.00    +0.000 OA
ATOM     52  C   UNL     1     103.605 124.122 146.119  0.00  0.00    +0.000 C 
ENDBRANCH  49  50
ENDBRANCH  48  49
ENDBRANCH  45  48
BRANCH  41  53
ATOM     53  O   UNL     1     106.344 124.770 147.101  0.00  0.00    +0.000 OA
BRANCH  53  54
ATOM     54  C   UNL     1     107.004 125.247 147.130  0.00  0.00    +0.000 C 
ATOM     55  O   UNL     1     107.673 125.240 146.718  0.00  0.00    +0.000 OA
ATOM     56  C   UNL     1     106.880 125.839 147.736  0.00  0.00    +0.000 C 
ENDBRANCH  53  54
ENDBRANCH  41  53
ENDBRANCH  39  43
ENDBRANCH   2  39
TORSDOF 14
ENDMDL
MODEL 7
REMARK VINA RESULT:      -9.1      1.630      2.561
REMARK  Name = 
REMARK  14 active torsions:
REMARK  status: ('A' for Active; 'I' for Inactive)
REMARK    1  A    between atoms: C_2  and  C_7
REMARK    2  A    between atoms: C_12  and  O_19
REMARK    3  A    between atoms: O_19  and  C_28
REMARK    4  A    between atoms: C_25  and  O_32
REMARK    5  A    between atoms: C_26  and  O_31
REMARK    6  A    between atoms: C_27  and  O_30
REMARK    7  A    between atoms: O_30  and  C_34
REMARK    8  A    between atoms: O_31  and  C_37
REMARK    9  A    between atoms: O_32  and  C_43
REMARK   10  A    between atoms: C_41  and  O_49
REMARK   11  A    between atoms: C_45  and  C_46
REMARK   12  A    between atoms: C_46  and  O_47
REMARK   13  A    between atoms: O_47  and  C_54
REMARK   14  A    between atoms: O_49  and  C_51
REMARK                            x       y       z     vdW  Elec       q    Type
REMARK                         _______ _______ _______ _____ _____    ______ ____
ROOT
ATOM      1  C   UNL     1     111.790 129.621 139.214  0.00  0.00    +0.000 C 
ATOM      2  C   UNL     1     112.677 129.655 138.627  0.00  0.00    +0.000 C 
ATOM      3  C   UNL     1     112.408 129.917 139.622  0.00  0.00    +0.000 C 
ATOM      4  C   UNL     1     112.685 130.305 140.573  0.00  0.00    +0.000 C 
ATOM      5  C   UNL     1     111.798 130.271 141.158  0.00  0.00    +0.000 C 
ATOM      6  O   UNL     1     112.067 130.009 140.164  0.00  0.00    +0.000 OA
ATOM      7  C   UNL     1     111.984 129.416 138.447  0.00  0.00    +0.000 C 
ENDROOT
BRANCH   5   8
ATOM      8  O   UNL     1     110.555 129.952 141.165  0.00  0.00    +0.000 OA
BRANCH   8  14
ATOM      9  C   UNL     1     109.645 128.764 142.237  0.00  0.00    +0.000 A 
ATOM     10  O   UNL     1     109.071 128.563 143.109  0.00  0.00    +0.000 OA
ATOM     11  C   UNL     1     108.832 129.352 143.780  0.00  0.00    +0.000 A 
ATOM     12  C   UNL     1     109.167 130.341 143.579  0.00  0.00    +0.000 A 
ATOM     13  C   UNL     1     109.741 130.541 142.708  0.00  0.00    +0.000 A 
ATOM     14  C   UNL     1     109.980 129.753 142.037  0.00  0.00    +0.000 A 
ATOM     15  C   UNL     1     108.257 129.152 144.652  0.00  0.00    +0.000 A 
ATOM     16  C   UNL     1     108.018 129.941 145.323  0.00  0.00    +0.000 A 
ATOM     17  C   UNL     1     108.353 130.929 145.122  0.00  0.00    +0.000 A 
ATOM     18  C   UNL     1     108.927 131.129 144.251  0.00  0.00    +0.000 A 
ATOM     19  O   UNL     1     110.028 131.388 142.536  0.00  0.00    +0.000 OA
ATOM     20  O   UNL     1     107.443 129.740 146.195  0.00  0.00    +0.000 OA
ATOM     21  O   UNL     1     109.208 131.957 144.083  0.00  0.00    +0.000 OA
BRANCH   9  23
ATOM     22  C   UNL     1     110.723 127.350 141.758  0.00  0.00    +0.000 A 
ATOM     23  C   UNL     1     109.884 127.975 141.566  0.00  0.00    +0.000 A 
ATOM     24  C   UNL     1     109.285 127.811 140.703  0.00  0.00    +0.000 A 
ATOM     25  C   UNL     1     109.524 127.022 140.033  0.00  0.00    +0.000 A 
ATOM     26  C   UNL     1     110.363 126.397 140.224  0.00  0.00    +0.000 A 
ATOM     27  C   UNL     1     110.962 126.561 141.086  0.00  0.00    +0.000 A 
ATOM     28  O   UNL     1     110.602 125.609 139.553  0.00  0.00    +0.000 OA
ATOM     29  O   UNL     1     108.925 126.858 139.170  0.00  0.00    +0.000 OA
ATOM     30  O   UNL     1     111.757 125.969 141.268  0.00  0.00    +0.000 OA
ENDBRANCH   9  23
ENDBRANCH   8  14
ENDBRANCH   5   8
BRANCH   4  31
ATOM     31  O   UNL     1     113.572 130.513 140.509  0.00  0.00    +0.000 OA
BRANCH  31  32
ATOM     32  C   UNL     1     114.346 130.699 140.469  0.00  0.00    +0.000 C 
ATOM     33  O   UNL     1     114.685 131.524 140.360  0.00  0.00    +0.000 OA
ATOM     34  C   UNL     1     115.105 130.241 140.509  0.00  0.00    +0.000 C 
ENDBRANCH  31  32
ENDBRANCH   4  31
BRANCH   3  35
ATOM     35  O   UNL     1     113.362 129.844 138.662  0.00  0.00    +0.000 OA
BRANCH  35  36
ATOM     36  C   UNL     1     113.740 130.398 138.057  0.00  0.00    +0.000 C 
ATOM     37  O   UNL     1     114.577 130.259 137.807  0.00  0.00    +0.000 OA
ATOM     38  C   UNL     1     113.418 131.111 137.629  0.00  0.00    +0.000 C 
ENDBRANCH  35  36
ENDBRANCH   3  35
BRANCH   2  39
ATOM     39  O   UNL     1     112.605 129.378 137.851  0.00  0.00    +0.000 OA
BRANCH  39  43
ATOM     40  C   UNL     1     112.337 125.989 136.304  0.00  0.00    +0.000 C 
ATOM     41  C   UNL     1     112.995 126.330 137.067  0.00  0.00    +0.000 C 
ATOM     42  C   UNL     1     112.745 127.353 137.215  0.00  0.00    +0.000 C 
ATOM     43  C   UNL     1     112.913 128.270 137.726  0.00  0.00    +0.000 C 
ATOM     44  O   UNL     1     112.255 127.929 136.963  0.00  0.00    +0.000 OA
ATOM     45  C   UNL     1     112.504 126.906 136.814  0.00  0.00    +0.000 C 
ATOM     46  O   UNL     1     112.529 125.216 136.195  0.00  0.00    +0.000 OA
ATOM     47  O   UNL     1     113.191 127.849 137.834  0.00  0.00    +0.000 OA
BRANCH  45  48
ATOM     48  C   UNL     1     112.061 126.747 136.326  0.00  0.00    +0.000 C 
BRANCH  48  49
ATOM     49  O   UNL     1     111.212 126.641 136.369  0.00  0.00    +0.000 OA
BRANCH  49  50
ATOM     50  C   UNL     1     110.894 126.956 135.458  0.00  0.00    +0.000 C 
ATOM     51  O   UNL     1     109.963 126.614 135.637  0.00  0.00    +0.000 OA
ATOM     52  C   UNL     1     111.187 127.301 134.867  0.00  0.00    +0.000 C 
ENDBRANCH  49  50
ENDBRANCH  48  49
ENDBRANCH  45  48
BRANCH  41  53
ATOM     53  O   UNL     1     112.883 125.478 136.635  0.00  0.00    +0.000 OA
BRANCH  53  54
ATOM     54  C   UNL     1     113.487 125.380 137.174  0.00  0.00    +0.000 C 
ATOM     55  O   UNL     1     113.501 125.416 137.959  0.00  0.00    +0.000 OA
ATOM     56  C   UNL     1     114.206 125.209 136.741  0.00  0.00    +0.000 C 
ENDBRANCH  53  54
ENDBRANCH  41  53
ENDBRANCH  39  43
ENDBRANCH   2  39
TORSDOF 14
ENDMDL
MODEL 8
REMARK VINA RESULT:      -9.1      2.319      3.570
REMARK  Name = 
REMARK  14 active torsions:
REMARK  status: ('A' for Active; 'I' for Inactive)
REMARK    1  A    between atoms: C_2  and  C_7
REMARK    2  A    between atoms: C_12  and  O_19
REMARK    3  A    between atoms: O_19  and  C_28
REMARK    4  A    between atoms: C_25  and  O_32
REMARK    5  A    between atoms: C_26  and  O_31
REMARK    6  A    between atoms: C_27  and  O_30
REMARK    7  A    between atoms: O_30  and  C_34
REMARK    8  A    between atoms: O_31  and  C_37
REMARK    9  A    between atoms: O_32  and  C_43
REMARK   10  A    between atoms: C_41  and  O_49
REMARK   11  A    between atoms: C_45  and  C_46
REMARK   12  A    between atoms: C_46  and  O_47
REMARK   13  A    between atoms: O_47  and  C_54
REMARK   14  A    between atoms: O_49  and  C_51
REMARK                            x       y       z     vdW  Elec       q    Type
REMARK                         _______ _______ _______ _____ _____    ______ ____
ROOT
ATOM      1  C   UNL     1     111.435 130.319 139.738  0.00  0.00    +0.000 C 
ATOM      2  C   UNL     1     111.933 129.770 138.975  0.00  0.00    +0.000 C 
ATOM      3  C   UNL     1     112.039 129.888 140.027  0.00  0.00    +0.000 C 
ATOM      4  C   UNL     1     112.553 129.649 140.927  0.00  0.00    +0.000 C 
ATOM      5  C   UNL     1     112.055 130.198 141.688  0.00  0.00    +0.000 C 
ATOM      6  O   UNL     1     111.948 130.080 140.637  0.00  0.00    +0.000 OA
ATOM      7  C   UNL     1     111.342 130.238 138.931  0.00  0.00    +0.000 C 
ENDROOT
BRANCH   5   8
ATOM      8  O   UNL     1     111.098 131.017 141.939  0.00  0.00    +0.000 OA
BRANCH   8  14
ATOM      9  C   UNL     1     109.929 131.086 143.359  0.00  0.00    +0.000 A 
ATOM     10  O   UNL     1     109.672 131.449 144.324  0.00  0.00    +0.000 OA
ATOM     11  C   UNL     1     110.331 132.109 144.834  0.00  0.00    +0.000 A 
ATOM     12  C   UNL     1     111.245 132.405 144.380  0.00  0.00    +0.000 A 
ATOM     13  C   UNL     1     111.501 132.041 143.415  0.00  0.00    +0.000 A 
ATOM     14  C   UNL     1     110.843 131.382 142.904  0.00  0.00    +0.000 A 
ATOM     15  C   UNL     1     110.075 132.473 145.800  0.00  0.00    +0.000 A 
ATOM     16  C   UNL     1     110.734 133.132 146.310  0.00  0.00    +0.000 A 
ATOM     17  C   UNL     1     111.648 133.428 145.856  0.00  0.00    +0.000 A 
ATOM     18  C   UNL     1     111.903 133.065 144.891  0.00  0.00    +0.000 A 
ATOM     19  O   UNL     1     112.284 132.295 143.025  0.00  0.00    +0.000 OA
ATOM     20  O   UNL     1     110.478 133.496 147.276  0.00  0.00    +0.000 OA
ATOM     21  O   UNL     1     112.669 133.313 144.510  0.00  0.00    +0.000 OA
BRANCH   9  23
ATOM     22  C   UNL     1     108.611 130.803 142.105  0.00  0.00    +0.000 A 
ATOM     23  C   UNL     1     109.270 130.425 142.848  0.00  0.00    +0.000 A 
ATOM     24  C   UNL     1     109.271 129.388 143.080  0.00  0.00    +0.000 A 
ATOM     25  C   UNL     1     108.612 128.729 142.570  0.00  0.00    +0.000 A 
ATOM     26  C   UNL     1     107.953 129.106 141.826  0.00  0.00    +0.000 A 
ATOM     27  C   UNL     1     107.952 130.143 141.594  0.00  0.00    +0.000 A 
ATOM     28  O   UNL     1     107.294 128.447 141.316  0.00  0.00    +0.000 OA
ATOM     29  O   UNL     1     108.613 127.692 142.803  0.00  0.00    +0.000 OA
ATOM     30  O   UNL     1     107.327 130.502 140.888  0.00  0.00    +0.000 OA
ENDBRANCH   9  23
ENDBRANCH   8  14
ENDBRANCH   5   8
BRANCH   4  31
ATOM     31  O   UNL     1     113.217 129.068 140.689  0.00  0.00    +0.000 OA
BRANCH  31  32
ATOM     32  C   UNL     1     113.796 128.556 140.497  0.00  0.00    +0.000 C 
ATOM     33  O   UNL     1     114.665 128.759 140.390  0.00  0.00    +0.000 OA
ATOM     34  C   UNL     1     113.835 127.685 140.329  0.00  0.00    +0.000 C 
ENDBRANCH  31  32
ENDBRANCH   4  31
BRANCH   3  35
ATOM     35  O   UNL     1     112.472 129.316 138.876  0.00  0.00    +0.000 OA
BRANCH  35  36
ATOM     36  C   UNL     1     113.137 129.447 138.279  0.00  0.00    +0.000 C 
ATOM     37  O   UNL     1     113.443 128.758 137.815  0.00  0.00    +0.000 OA
ATOM     38  C   UNL     1     113.581 130.183 138.042  0.00  0.00    +0.000 C 
ENDBRANCH  35  36
ENDBRANCH   3  35
BRANCH   2  39
ATOM     39  O   UNL     1     111.633 129.863 138.210  0.00  0.00    +0.000 OA
BRANCH  39  43
ATOM     40  C   UNL     1     108.926 128.395 136.097  0.00  0.00    +0.000 C 
ATOM     41  C   UNL     1     109.469 127.953 136.898  0.00  0.00    +0.000 C 
ATOM     42  C   UNL     1     110.144 128.706 137.227  0.00  0.00    +0.000 C 
ATOM     43  C   UNL     1     110.917 129.014 137.888  0.00  0.00    +0.000 C 
ATOM     44  O   UNL     1     110.375 129.456 137.087  0.00  0.00    +0.000 OA
ATOM     45  C   UNL     1     109.699 128.704 136.757  0.00  0.00    +0.000 C 
ATOM     46  O   UNL     1     108.417 127.824 135.851  0.00  0.00    +0.000 OA
ATOM     47  O   UNL     1     110.714 128.540 137.916  0.00  0.00    +0.000 OA
BRANCH  45  48
ATOM     48  C   UNL     1     109.387 129.038 136.256  0.00  0.00    +0.000 C 
BRANCH  48  49
ATOM     49  O   UNL     1     108.841 129.697 136.291  0.00  0.00    +0.000 OA
BRANCH  49  50
ATOM     50  C   UNL     1     109.022 130.194 135.424  0.00  0.00    +0.000 C 
ATOM     51  O   UNL     1     108.182 130.738 135.533  0.00  0.00    +0.000 OA
ATOM     52  C   UNL     1     109.545 130.193 134.894  0.00  0.00    +0.000 C 
ENDBRANCH  49  50
ENDBRANCH  48  49
ENDBRANCH  45  48
BRANCH  41  53
ATOM     53  O   UNL     1     108.769 127.626 136.325  0.00  0.00    +0.000 OA
BRANCH  53  54
ATOM     54  C   UNL     1     109.000 126.992 136.782  0.00  0.00    +0.000 C 
ATOM     55  O   UNL     1     108.940 126.853 137.553  0.00  0.00    +0.000 OA
ATOM     56  C   UNL     1     109.365 126.411 136.270  0.00  0.00    +0.000 C 
ENDBRANCH  53  54
ENDBRANCH  41  53
ENDBRANCH  39  43
ENDBRANCH   2  39
TORSDOF 14
ENDMDL
MODEL 9
REMARK VINA RESULT:      -9.0      2.377      3.737
REMARK  Name = 
REMARK  14 active torsions:
REMARK  status: ('A' for Active; 'I' for Inactive)
REMARK    1  A    between atoms: C_2  and  C_7
REMARK    2  A    between atoms: C_12  and  O_19
REMARK    3  A    between atoms: O_19  and  C_28
REMARK    4  A    between atoms: C_25  and  O_32
REMARK    5  A    between atoms: C_26  and  O_31
REMARK    6  A    between atoms: C_27  and  O_30
REMARK    7  A    between atoms: O_30  and  C_34
REMARK    8  A    between atoms: O_31  and  C_37
REMARK    9  A    between atoms: O_32  and  C_43
REMARK   10  A    between atoms: C_41  and  O_49
REMARK   11  A    between atoms: C_45  and  C_46
REMARK   12  A    between atoms: C_46  and  O_47
REMARK   13  A    between atoms: O_47  and  C_54
REMARK   14  A    between atoms: O_49  and  C_51
REMARK                            x       y       z     vdW  Elec       q    Type
REMARK                         _______ _______ _______ _____ _____    ______ ____
ROOT
ATOM      1  C   UNL     1     111.073 129.390 140.225  0.00  0.00    +0.000 C 
ATOM      2  C   UNL     1     111.502 129.260 139.260  0.00  0.00    +0.000 C 
ATOM      3  C   UNL     1     111.791 129.731 140.169  0.00  0.00    +0.000 C 
ATOM      4  C   UNL     1     112.508 130.289 140.721  0.00  0.00    +0.000 C 
ATOM      5  C   UNL     1     112.078 130.419 141.685  0.00  0.00    +0.000 C 
ATOM      6  O   UNL     1     111.789 129.948 140.778  0.00  0.00    +0.000 OA
ATOM      7  C   UNL     1     110.839 129.024 139.533  0.00  0.00    +0.000 C 
ENDROOT
BRANCH   5   8
ATOM      8  O   UNL     1     111.057 130.171 142.423  0.00  0.00    +0.000 OA
BRANCH   8  14
ATOM      9  C   UNL     1     109.724 130.768 143.543  0.00  0.00    +0.000 A 
ATOM     10  O   UNL     1     109.412 131.354 144.373  0.00  0.00    +0.000 OA
ATOM     11  C   UNL     1     110.124 131.929 144.913  0.00  0.00    +0.000 A 
ATOM     12  C   UNL     1     111.147 131.918 144.624  0.00  0.00    +0.000 A 
ATOM     13  C   UNL     1     111.458 131.332 143.794  0.00  0.00    +0.000 A 
ATOM     14  C   UNL     1     110.747 130.757 143.254  0.00  0.00    +0.000 A 
ATOM     15  C   UNL     1     109.812 132.516 145.744  0.00  0.00    +0.000 A 
ATOM     16  C   UNL     1     110.524 133.091 146.284  0.00  0.00    +0.000 A 
ATOM     17  C   UNL     1     111.547 133.080 145.995  0.00  0.00    +0.000 A 
ATOM     18  C   UNL     1     111.858 132.494 145.165  0.00  0.00    +0.000 A 
ATOM     19  O   UNL     1     112.334 131.323 143.546  0.00  0.00    +0.000 OA
ATOM     20  O   UNL     1     110.213 133.678 147.115  0.00  0.00    +0.000 OA
ATOM     21  O   UNL     1     112.714 132.485 144.923  0.00  0.00    +0.000 OA
BRANCH   9  23
ATOM     22  C   UNL     1     108.867 129.167 143.241  0.00  0.00    +0.000 A 
ATOM     23  C   UNL     1     109.012 130.193 143.002  0.00  0.00    +0.000 A 
ATOM     24  C   UNL     1     108.445 130.643 142.223  0.00  0.00    +0.000 A 
ATOM     25  C   UNL     1     107.734 130.067 141.683  0.00  0.00    +0.000 A 
ATOM     26  C   UNL     1     107.588 129.042 141.921  0.00  0.00    +0.000 A 
ATOM     27  C   UNL     1     108.155 128.591 142.700  0.00  0.00    +0.000 A 
ATOM     28  O   UNL     1     106.877 128.466 141.381  0.00  0.00    +0.000 OA
ATOM     29  O   UNL     1     107.168 130.518 140.904  0.00  0.00    +0.000 OA
ATOM     30  O   UNL     1     108.018 127.618 142.926  0.00  0.00    +0.000 OA
ENDBRANCH   9  23
ENDBRANCH   8  14
ENDBRANCH   5   8
BRANCH   4  31
ATOM     31  O   UNL     1     113.205 130.436 140.151  0.00  0.00    +0.000 OA
BRANCH  31  32
ATOM     32  C   UNL     1     113.820 130.575 139.662  0.00  0.00    +0.000 C 
ATOM     33  O   UNL     1     113.817 131.133 138.958  0.00  0.00    +0.000 OA
ATOM     34  C   UNL     1     114.656 130.284 139.607  0.00  0.00    +0.000 C 
ENDBRANCH  31  32
ENDBRANCH   4  31
BRANCH   3  35
ATOM     35  O   UNL     1     112.084 129.417 138.882  0.00  0.00    +0.000 OA
BRANCH  35  36
ATOM     36  C   UNL     1     112.588 128.808 138.446  0.00  0.00    +0.000 C 
ATOM     37  O   UNL     1     112.922 129.012 137.653  0.00  0.00    +0.000 OA
ATOM     38  C   UNL     1     112.837 127.980 138.667  0.00  0.00    +0.000 C 
ENDBRANCH  35  36
ENDBRANCH   3  35
BRANCH   2  39
ATOM     39  O   UNL     1     111.045 128.835 138.717  0.00  0.00    +0.000 OA
BRANCH  39  43
ATOM     40  C   UNL     1     108.586 129.449 135.974  0.00  0.00    +0.000 C 
ATOM     41  C   UNL     1     108.959 130.124 136.706  0.00  0.00    +0.000 C 
ATOM     42  C   UNL     1     109.635 129.552 137.295  0.00  0.00    +0.000 C 
ATOM     43  C   UNL     1     110.319 129.497 138.106  0.00  0.00    +0.000 C 
ATOM     44  O   UNL     1     109.946 128.822 137.374  0.00  0.00    +0.000 OA
ATOM     45  C   UNL     1     109.270 129.393 136.785  0.00  0.00    +0.000 C 
ATOM     46  O   UNL     1     108.075 129.884 135.531  0.00  0.00    +0.000 OA
ATOM     47  O   UNL     1     110.076 129.937 137.991  0.00  0.00    +0.000 OA
BRANCH  45  48
ATOM     48  C   UNL     1     109.068 128.918 136.344  0.00  0.00    +0.000 C 
BRANCH  48  49
ATOM     49  O   UNL     1     108.589 128.219 136.470  0.00  0.00    +0.000 OA
BRANCH  49  50
ATOM     50  C   UNL     1     108.968 127.556 135.801  0.00  0.00    +0.000 C 
ATOM     51  O   UNL     1     108.289 126.862 136.069  0.00  0.00    +0.000 OA
ATOM     52  C   UNL     1     109.517 127.541 135.300  0.00  0.00    +0.000 C 
ENDBRANCH  49  50
ENDBRANCH  48  49
ENDBRANCH  45  48
BRANCH  41  53
ATOM     53  O   UNL     1     108.332 130.226 135.985  0.00  0.00    +0.000 OA
BRANCH  53  54
ATOM     54  C   UNL     1     108.372 130.952 136.352  0.00  0.00    +0.000 C 
ATOM     55  O   UNL     1     108.154 131.190 137.069  0.00  0.00    +0.000 OA
ATOM     56  C   UNL     1     108.723 131.509 135.805  0.00  0.00    +0.000 C 
ENDBRANCH  53  54
ENDBRANCH  41  53
ENDBRANCH  39  43
ENDBRANCH   2  39
TORSDOF 14
ENDMDL
MODEL 10
REMARK VINA RESULT:      -8.9      1.503      2.627
REMARK  Name = 
REMARK  14 active torsions:
REMARK  status: ('A' for Active; 'I' for Inactive)
REMARK    1  A    between atoms: C_2  and  C_7
REMARK    2  A    between atoms: C_12  and  O_19
REMARK    3  A    between atoms: O_19  and  C_28
REMARK    4  A    between atoms: C_25  and  O_32
REMARK    5  A    between atoms: C_26  and  O_31
REMARK    6  A    between atoms: C_27  and  O_30
REMARK    7  A    between atoms: O_30  and  C_34
REMARK    8  A    between atoms: O_31  and  C_37
REMARK    9  A    between atoms: O_32  and  C_43
REMARK   10  A    between atoms: C_41  and  O_49
REMARK   11  A    between atoms: C_45  and  C_46
REMARK   12  A    between atoms: C_46  and  O_47
REMARK   13  A    between atoms: O_47  and  C_54
REMARK   14  A    between atoms: O_49  and  C_51
REMARK                            x       y       z     vdW  Elec       q    Type
REMARK                         _______ _______ _______ _____ _____    ______ ____
ROOT
ATOM      1  C   UNL     1     111.193 129.799 139.252  0.00  0.00    +0.000 C 
ATOM      2  C   UNL     1     110.731 129.700 138.299  0.00  0.00    +0.000 C 
ATOM      3  C   UNL     1     110.663 130.378 139.115  0.00  0.00    +0.000 C 
ATOM      4  C   UNL     1     110.229 131.247 139.548  0.00  0.00    +0.000 C 
ATOM      5  C   UNL     1     110.691 131.346 140.500  0.00  0.00    +0.000 C 
ATOM      6  O   UNL     1     110.760 130.668 139.685  0.00  0.00    +0.000 OA
ATOM      7  C   UNL     1     111.255 129.271 138.633  0.00  0.00    +0.000 C 
ENDROOT
BRANCH   5   8
ATOM      8  O   UNL     1     111.548 130.838 141.311  0.00  0.00    +0.000 OA
BRANCH   8  14
ATOM      9  C   UNL     1     111.467 130.134 143.009  0.00  0.00    +0.000 A 
ATOM     10  O   UNL     1     111.466 130.269 144.063  0.00  0.00    +0.000 OA
ATOM     11  C   UNL     1     111.546 131.247 144.472  0.00  0.00    +0.000 A 
ATOM     12  C   UNL     1     111.627 132.088 143.828  0.00  0.00    +0.000 A 
ATOM     13  C   UNL     1     111.628 131.952 142.774  0.00  0.00    +0.000 A 
ATOM     14  C   UNL     1     111.548 130.975 142.365  0.00  0.00    +0.000 A 
ATOM     15  C   UNL     1     111.546 131.383 145.527  0.00  0.00    +0.000 A 
ATOM     16  C   UNL     1     111.626 132.360 145.936  0.00  0.00    +0.000 A 
ATOM     17  C   UNL     1     111.707 133.202 145.292  0.00  0.00    +0.000 A 
ATOM     18  C   UNL     1     111.708 133.066 144.238  0.00  0.00    +0.000 A 
ATOM     19  O   UNL     1     111.697 132.673 142.222  0.00  0.00    +0.000 OA
ATOM     20  O   UNL     1     111.625 132.496 146.991  0.00  0.00    +0.000 OA
ATOM     21  O   UNL     1     111.775 133.770 143.699  0.00  0.00    +0.000 OA
BRANCH   9  23
ATOM     22  C   UNL     1     112.259 128.643 142.275  0.00  0.00    +0.000 A 
ATOM     23  C   UNL     1     111.387 129.156 142.600  0.00  0.00    +0.000 A 
ATOM     24  C   UNL     1     110.434 128.691 142.515  0.00  0.00    +0.000 A 
ATOM     25  C   UNL     1     110.354 127.714 142.106  0.00  0.00    +0.000 A 
ATOM     26  C   UNL     1     111.226 127.200 141.781  0.00  0.00    +0.000 A 
ATOM     27  C   UNL     1     112.179 127.665 141.865  0.00  0.00    +0.000 A 
ATOM     28  O   UNL     1     111.146 126.223 141.371  0.00  0.00    +0.000 OA
ATOM     29  O   UNL     1     109.402 127.250 142.022  0.00  0.00    +0.000 OA
ATOM     30  O   UNL     1     113.007 127.179 141.557  0.00  0.00    +0.000 OA
ENDBRANCH   9  23
ENDBRANCH   8  14
ENDBRANCH   5   8
BRANCH   4  31
ATOM     31  O   UNL     1     109.633 131.562 138.933  0.00  0.00    +0.000 OA
BRANCH  31  32
ATOM     32  C   UNL     1     109.109 131.850 138.405  0.00  0.00    +0.000 C 
ATOM     33  O   UNL     1     108.216 131.751 138.442  0.00  0.00    +0.000 OA
ATOM     34  C   UNL     1     109.166 132.325 137.658  0.00  0.00    +0.000 C 
ENDBRANCH  31  32
ENDBRANCH   4  31
BRANCH   3  35
ATOM     35  O   UNL     1     110.249 130.010 137.878  0.00  0.00    +0.000 OA
BRANCH  35  36
ATOM     36  C   UNL     1     109.549 129.570 137.515  0.00  0.00    +0.000 C 
ATOM     37  O   UNL     1     109.099 128.990 138.011  0.00  0.00    +0.000 OA
ATOM     38  C   UNL     1     109.190 129.602 136.699  0.00  0.00    +0.000 C 
ENDBRANCH  35  36
ENDBRANCH   3  35
BRANCH   2  39
ATOM     39  O   UNL     1     110.978 129.054 137.845  0.00  0.00    +0.000 OA
BRANCH  39  43
ATOM     40  C   UNL     1     113.996 128.077 135.874  0.00  0.00    +0.000 C 
ATOM     41  C   UNL     1     113.592 129.044 136.050  0.00  0.00    +0.000 C 
ATOM     42  C   UNL     1     112.734 128.883 136.656  0.00  0.00    +0.000 C 
ATOM     43  C   UNL     1     111.902 129.279 137.187  0.00  0.00    +0.000 C 
ATOM     44  O   UNL     1     112.306 128.311 137.011  0.00  0.00    +0.000 OA
ATOM     45  C   UNL     1     113.164 128.472 136.404  0.00  0.00    +0.000 C 
ATOM     46  O   UNL     1     114.644 128.202 135.415  0.00  0.00    +0.000 OA
ATOM     47  O   UNL     1     112.228 129.587 136.931  0.00  0.00    +0.000 OA
BRANCH  45  48
ATOM     48  C   UNL     1     113.375 127.831 136.326  0.00  0.00    +0.000 C 
BRANCH  48  49
ATOM     49  O   UNL     1     112.993 127.171 135.937  0.00  0.00    +0.000 OA
BRANCH  49  50
ATOM     50  C   UNL     1     113.264 126.377 136.509  0.00  0.00    +0.000 C 
ATOM     51  O   UNL     1     112.571 125.793 136.070  0.00  0.00    +0.000 OA
ATOM     52  C   UNL     1     113.762 126.235 137.044  0.00  0.00    +0.000 C 
ENDBRANCH  49  50
ENDBRANCH  48  49
ENDBRANCH  45  48
BRANCH  41  53
ATOM     53  O   UNL     1     114.358 128.737 135.556  0.00  0.00    +0.000 OA
BRANCH  53  54
ATOM     54  C   UNL     1     114.392 129.552 135.540  0.00  0.00    +0.000 C 
ATOM     55  O   UNL     1     114.482 130.083 136.111  0.00  0.00    +0.000 OA
ATOM     56  C   UNL     1     114.310 129.807 134.727  0.00  0.00    +0.000 C 
ENDBRANCH  53  54
ENDBRANCH  41  53
ENDBRANCH  39  43
ENDBRANCH   2  39
TORSDOF 14
ENDMDL
