MODEL 1
REMARK VINA RESULT:     -10.1      0.000      0.000
REMARK  Name = 75072287
REMARK  9 active torsions:
REMARK  status: ('A' for Active; 'I' for Inactive)
REMARK    1  A    between atoms: O_3  and  C_31
REMARK    2  A    between atoms: O_4  and  C_32
REMARK    3  A    between atoms: O_7  and  C_37
REMARK    4  A    between atoms: O_8  and  C_38
REMARK    5  A    between atoms: O_9  and  C_41
REMARK    6  A    between atoms: O_10  and  C_42
REMARK    7  A    between atoms: C_19  and  C_27
REMARK    8  A    between atoms: C_20  and  C_28
REMARK    9  A    between atoms: C_21  and  C_22
REMARK                            x       y       z     vdW  Elec       q    Type
REMARK                         _______ _______ _______ _____ _____    ______ ____
ROOT
ATOM      1  O   UNL     1     113.648 127.428 136.486  0.00  0.00    +0.000 OA
ATOM      2  O   UNL     1     114.280 125.922 136.760  0.00  0.00    +0.000 OA
ATOM      3  C   UNL     1     112.311 126.862 136.686  0.00  0.00    +0.000 A 
ATOM      4  C   UNL     1     111.954 127.631 136.548  0.00  0.00    +0.000 C 
ATOM      5  C   UNL     1     112.456 128.308 136.377  0.00  0.00    +0.000 C 
ATOM      6  C   UNL     1     113.309 128.206 136.346  0.00  0.00    +0.000 C 
ATOM      7  C   UNL     1     111.824 126.217 136.849  0.00  0.00    +0.000 A 
ATOM      8  C   UNL     1     113.130 126.764 136.656  0.00  0.00    +0.000 A 
ATOM      9  C   UNL     1     112.155 125.473 136.983  0.00  0.00    +0.000 A 
ATOM     10  C   UNL     1     113.461 126.020 136.790  0.00  0.00    +0.000 A 
ATOM     11  C   UNL     1     112.974 125.375 136.953  0.00  0.00    +0.000 A 
ENDROOT
BRANCH   7  18
ATOM     12  O   UNL     1     109.387 126.461 138.390  0.00  0.00    +0.000 OA
ATOM     13  O   UNL     1     108.549 126.609 136.969  0.00  0.00    +0.000 OA
ATOM     14  C   UNL     1     110.619 126.338 137.607  0.00  0.00    +0.000 A 
ATOM     15  C   UNL     1     111.080 126.258 138.328  0.00  0.00    +0.000 C 
ATOM     16  C   UNL     1     110.684 126.281 139.090  0.00  0.00    +0.000 C 
ATOM     17  C   UNL     1     109.831 126.383 139.121  0.00  0.00    +0.000 C 
ATOM     18  C   UNL     1     111.006 126.315 136.879  0.00  0.00    +0.000 A 
ATOM     19  C   UNL     1     109.800 126.436 137.637  0.00  0.00    +0.000 A 
ATOM     20  C   UNL     1     110.573 126.390 136.180  0.00  0.00    +0.000 A 
ATOM     21  C   UNL     1     109.369 126.511 136.939  0.00  0.00    +0.000 A 
ATOM     22  C   UNL     1     109.755 126.488 136.210  0.00  0.00    +0.000 A 
BRANCH  17  24
ATOM     23  O   UNL     1     108.490 125.034 141.254  0.00  0.00    +0.000 OA
ATOM     24  C   UNL     1     109.442 126.406 139.848  0.00  0.00    +0.000 A 
ATOM     25  C   UNL     1     109.335 127.126 140.236  0.00  0.00    +0.000 A 
ATOM     26  C   UNL     1     109.161 125.709 140.188  0.00  0.00    +0.000 A 
ATOM     27  C   UNL     1     108.946 127.149 140.964  0.00  0.00    +0.000 A 
ATOM     28  C   UNL     1     108.771 125.732 140.915  0.00  0.00    +0.000 A 
ATOM     29  C   UNL     1     108.664 126.452 141.303  0.00  0.00    +0.000 A 
BRANCH  27  30
ATOM     30  O   UNL     1     108.839 127.870 141.351  0.00  0.00    +0.000 OA
ATOM     31  C   UNL     1     109.389 128.477 141.253  0.00  0.00    +0.000 C 
ENDBRANCH  27  30
BRANCH  29  32
ATOM     32  O   UNL     1     108.276 126.475 142.029  0.00  0.00    +0.000 OA
ATOM     33  C   UNL     1     107.457 126.378 142.063  0.00  0.00    +0.000 C 
ENDBRANCH  29  32
ENDBRANCH  17  24
BRANCH  22  34
ATOM     34  O   UNL     1     109.323 126.564 135.512  0.00  0.00    +0.000 OA
ATOM     35  C   UNL     1     109.452 126.040 134.887  0.00  0.00    +0.000 C 
ENDBRANCH  22  34
ENDBRANCH   7  18
BRANCH   6  37
ATOM     36  O   UNL     1     115.155 129.534 134.615  0.00  0.00    +0.000 OA
ATOM     37  C   UNL     1     113.798 128.849 136.183  0.00  0.00    +0.000 A 
ATOM     38  C   UNL     1     113.855 129.472 136.720  0.00  0.00    +0.000 A 
ATOM     39  C   UNL     1     114.232 128.870 135.481  0.00  0.00    +0.000 A 
ATOM     40  C   UNL     1     114.344 130.116 136.557  0.00  0.00    +0.000 A 
ATOM     41  C   UNL     1     114.721 129.513 135.317  0.00  0.00    +0.000 A 
ATOM     42  C   UNL     1     114.778 130.137 135.855  0.00  0.00    +0.000 A 
BRANCH  40  43
ATOM     43  O   UNL     1     114.400 130.739 137.095  0.00  0.00    +0.000 OA
ATOM     44  C   UNL     1     114.144 130.636 137.873  0.00  0.00    +0.000 C 
ENDBRANCH  40  43
BRANCH  42  45
ATOM     45  O   UNL     1     115.267 130.779 135.692  0.00  0.00    +0.000 OA
ATOM     46  C   UNL     1     115.142 131.229 135.011  0.00  0.00    +0.000 C 
ENDBRANCH  42  45
ENDBRANCH   6  37
BRANCH  11  47
ATOM     47  O   UNL     1     113.305 124.632 137.087  0.00  0.00    +0.000 OA
ATOM     48  C   UNL     1     113.079 123.989 136.621  0.00  0.00    +0.000 C 
ENDBRANCH  11  47
TORSDOF 9
ENDMDL
MODEL 2
REMARK VINA RESULT:     -10.1      3.048      5.570
REMARK  Name = 75072287
REMARK  9 active torsions:
REMARK  status: ('A' for Active; 'I' for Inactive)
REMARK    1  A    between atoms: O_3  and  C_31
REMARK    2  A    between atoms: O_4  and  C_32
REMARK    3  A    between atoms: O_7  and  C_37
REMARK    4  A    between atoms: O_8  and  C_38
REMARK    5  A    between atoms: O_9  and  C_41
REMARK    6  A    between atoms: O_10  and  C_42
REMARK    7  A    between atoms: C_19  and  C_27
REMARK    8  A    between atoms: C_20  and  C_28
REMARK    9  A    between atoms: C_21  and  C_22
REMARK                            x       y       z     vdW  Elec       q    Type
REMARK                         _______ _______ _______ _____ _____    ______ ____
ROOT
ATOM      1  O   UNL     1     113.524 127.364 136.209  0.00  0.00    +0.000 OA
ATOM      2  O   UNL     1     114.574 128.169 135.212  0.00  0.00    +0.000 OA
ATOM      3  C   UNL     1     113.050 128.662 136.696  0.00  0.00    +0.000 A 
ATOM      4  C   UNL     1     112.495 128.272 137.223  0.00  0.00    +0.000 C 
ATOM      5  C   UNL     1     112.457 127.414 137.240  0.00  0.00    +0.000 C 
ATOM      6  C   UNL     1     112.975 126.957 136.730  0.00  0.00    +0.000 C 
ATOM      7  C   UNL     1     113.081 129.487 136.684  0.00  0.00    +0.000 A 
ATOM      8  C   UNL     1     113.547 128.223 136.206  0.00  0.00    +0.000 A 
ATOM      9  C   UNL     1     113.610 129.871 136.182  0.00  0.00    +0.000 A 
ATOM     10  C   UNL     1     114.076 128.608 135.703  0.00  0.00    +0.000 A 
ATOM     11  C   UNL     1     114.108 129.432 135.691  0.00  0.00    +0.000 A 
ENDROOT
BRANCH   7  18
ATOM     12  O   UNL     1     110.579 130.875 137.114  0.00  0.00    +0.000 OA
ATOM     13  O   UNL     1     111.092 131.243 138.645  0.00  0.00    +0.000 OA
ATOM     14  C   UNL     1     111.847 130.173 136.899  0.00  0.00    +0.000 A 
ATOM     15  C   UNL     1     111.608 129.967 136.099  0.00  0.00    +0.000 C 
ATOM     16  C   UNL     1     110.842 130.221 135.807  0.00  0.00    +0.000 C 
ATOM     17  C   UNL     1     110.324 130.678 136.318  0.00  0.00    +0.000 C 
ATOM     18  C   UNL     1     112.584 129.925 137.174  0.00  0.00    +0.000 A 
ATOM     19  C   UNL     1     111.350 130.612 137.389  0.00  0.00    +0.000 A 
ATOM     20  C   UNL     1     112.824 130.117 137.940  0.00  0.00    +0.000 A 
ATOM     21  C   UNL     1     111.590 130.803 138.154  0.00  0.00    +0.000 A 
ATOM     22  C   UNL     1     112.327 130.556 138.430  0.00  0.00    +0.000 A 
BRANCH  17  24
ATOM     23  O   UNL     1     107.510 130.251 136.056  0.00  0.00    +0.000 OA
ATOM     24  C   UNL     1     109.586 130.927 136.045  0.00  0.00    +0.000 A 
ATOM     25  C   UNL     1     109.516 131.637 135.630  0.00  0.00    +0.000 A 
ATOM     26  C   UNL     1     108.917 130.465 136.186  0.00  0.00    +0.000 A 
ATOM     27  C   UNL     1     108.778 131.885 135.358  0.00  0.00    +0.000 A 
ATOM     28  C   UNL     1     108.178 130.713 135.914  0.00  0.00    +0.000 A 
ATOM     29  C   UNL     1     108.109 131.424 135.499  0.00  0.00    +0.000 A 
BRANCH  27  30
ATOM     30  O   UNL     1     108.710 132.595 134.943  0.00  0.00    +0.000 OA
ATOM     31  C   UNL     1     109.385 132.974 134.659  0.00  0.00    +0.000 C 
ENDBRANCH  27  30
BRANCH  29  32
ATOM     32  O   UNL     1     107.372 131.671 135.227  0.00  0.00    +0.000 OA
ATOM     33  C   UNL     1     106.764 131.822 135.763  0.00  0.00    +0.000 C 
ENDBRANCH  29  32
ENDBRANCH  17  24
BRANCH  22  34
ATOM     34  O   UNL     1     112.567 130.748 139.195  0.00  0.00    +0.000 OA
ATOM     35  C   UNL     1     113.030 130.219 139.628  0.00  0.00    +0.000 C 
ENDBRANCH  22  34
ENDBRANCH   7  18
BRANCH   6  37
ATOM     36  O   UNL     1     111.641 124.520 136.057  0.00  0.00    +0.000 OA
ATOM     37  C   UNL     1     112.945 126.132 136.740  0.00  0.00    +0.000 A 
ATOM     38  C   UNL     1     113.552 125.701 137.096  0.00  0.00    +0.000 A 
ATOM     39  C   UNL     1     112.308 125.738 136.394  0.00  0.00    +0.000 A 
ATOM     40  C   UNL     1     113.522 124.877 137.106  0.00  0.00    +0.000 A 
ATOM     41  C   UNL     1     112.277 124.914 136.403  0.00  0.00    +0.000 A 
ATOM     42  C   UNL     1     112.885 124.483 136.759  0.00  0.00    +0.000 A 
BRANCH  40  43
ATOM     43  O   UNL     1     114.129 124.447 137.462  0.00  0.00    +0.000 OA
ATOM     44  C   UNL     1     114.884 124.774 137.526  0.00  0.00    +0.000 C 
ENDBRANCH  40  43
BRANCH  42  45
ATOM     45  O   UNL     1     112.855 123.659 136.769  0.00  0.00    +0.000 OA
ATOM     46  C   UNL     1     112.182 123.275 137.051  0.00  0.00    +0.000 C 
ENDBRANCH  42  45
ENDBRANCH   6  37
BRANCH  11  47
ATOM     47  O   UNL     1     114.636 129.817 135.189  0.00  0.00    +0.000 OA
ATOM     48  C   UNL     1     115.105 130.433 135.476  0.00  0.00    +0.000 C 
ENDBRANCH  11  47
TORSDOF 9
ENDMDL
MODEL 3
REMARK VINA RESULT:      -9.8      3.077      5.620
REMARK  Name = 75072287
REMARK  9 active torsions:
REMARK  status: ('A' for Active; 'I' for Inactive)
REMARK    1  A    between atoms: O_3  and  C_31
REMARK    2  A    between atoms: O_4  and  C_32
REMARK    3  A    between atoms: O_7  and  C_37
REMARK    4  A    between atoms: O_8  and  C_38
REMARK    5  A    between atoms: O_9  and  C_41
REMARK    6  A    between atoms: O_10  and  C_42
REMARK    7  A    between atoms: C_19  and  C_27
REMARK    8  A    between atoms: C_20  and  C_28
REMARK    9  A    between atoms: C_21  and  C_22
REMARK                            x       y       z     vdW  Elec       q    Type
REMARK                         _______ _______ _______ _____ _____    ______ ____
ROOT
ATOM      1  O   UNL     1     111.091 131.041 137.504  0.00  0.00    +0.000 OA
ATOM      2  O   UNL     1     111.769 131.240 139.002  0.00  0.00    +0.000 OA
ATOM      3  C   UNL     1     112.255 130.236 137.126  0.00  0.00    +0.000 A 
ATOM      4  C   UNL     1     111.929 130.115 136.340  0.00  0.00    +0.000 C 
ATOM      5  C   UNL     1     111.170 130.465 136.138  0.00  0.00    +0.000 C 
ATOM      6  C   UNL     1     110.749 130.931 136.724  0.00  0.00    +0.000 C 
ATOM      7  C   UNL     1     112.984 129.897 137.314  0.00  0.00    +0.000 A 
ATOM      8  C   UNL     1     111.850 130.683 137.688  0.00  0.00    +0.000 A 
ATOM      9  C   UNL     1     113.307 130.007 138.065  0.00  0.00    +0.000 A 
ATOM     10  C   UNL     1     112.175 130.792 138.439  0.00  0.00    +0.000 A 
ATOM     11  C   UNL     1     112.903 130.454 138.628  0.00  0.00    +0.000 A 
ENDROOT
BRANCH   7  18
ATOM     12  O   UNL     1     113.631 127.326 136.153  0.00  0.00    +0.000 OA
ATOM     13  O   UNL     1     114.603 128.107 135.063  0.00  0.00    +0.000 OA
ATOM     14  C   UNL     1     113.305 128.630 136.739  0.00  0.00    +0.000 A 
ATOM     15  C   UNL     1     112.793 128.252 137.317  0.00  0.00    +0.000 C 
ATOM     16  C   UNL     1     112.702 127.398 137.309  0.00  0.00    +0.000 C 
ATOM     17  C   UNL     1     113.123 126.932 136.723  0.00  0.00    +0.000 C 
ATOM     18  C   UNL     1     113.389 129.450 136.752  0.00  0.00    +0.000 A 
ATOM     19  C   UNL     1     113.710 128.182 136.176  0.00  0.00    +0.000 A 
ATOM     20  C   UNL     1     113.878 129.823 136.201  0.00  0.00    +0.000 A 
ATOM     21  C   UNL     1     114.198 128.555 135.627  0.00  0.00    +0.000 A 
ATOM     22  C   UNL     1     114.283 129.376 135.639  0.00  0.00    +0.000 A 
BRANCH  17  24
ATOM     23  O   UNL     1     111.615 124.609 136.020  0.00  0.00    +0.000 OA
ATOM     24  C   UNL     1     113.041 126.112 136.708  0.00  0.00    +0.000 A 
ATOM     25  C   UNL     1     113.630 125.632 137.029  0.00  0.00    +0.000 A 
ATOM     26  C   UNL     1     112.369 125.770 136.372  0.00  0.00    +0.000 A 
ATOM     27  C   UNL     1     113.548 124.811 137.015  0.00  0.00    +0.000 A 
ATOM     28  C   UNL     1     112.286 124.949 136.357  0.00  0.00    +0.000 A 
ATOM     29  C   UNL     1     112.876 124.470 136.678  0.00  0.00    +0.000 A 
BRANCH  27  30
ATOM     30  O   UNL     1     114.137 124.331 137.336  0.00  0.00    +0.000 OA
ATOM     31  C   UNL     1     114.896 124.633 137.452  0.00  0.00    +0.000 C 
ENDBRANCH  27  30
BRANCH  29  32
ATOM     32  O   UNL     1     112.793 123.650 136.663  0.00  0.00    +0.000 OA
ATOM     33  C   UNL     1     112.169 123.290 137.065  0.00  0.00    +0.000 C 
ENDBRANCH  29  32
ENDBRANCH  17  24
BRANCH  22  34
ATOM     34  O   UNL     1     114.771 129.749 135.089  0.00  0.00    +0.000 OA
ATOM     35  C   UNL     1     115.264 130.366 135.327  0.00  0.00    +0.000 C 
ENDBRANCH  22  34
ENDBRANCH   7  18
BRANCH   6  37
ATOM     36  O   UNL     1     109.099 132.421 134.927  0.00  0.00    +0.000 OA
ATOM     37  C   UNL     1     110.020 131.270 136.538  0.00  0.00    +0.000 A 
ATOM     38  C   UNL     1     109.388 131.205 137.063  0.00  0.00    +0.000 A 
ATOM     39  C   UNL     1     109.923 131.676 135.826  0.00  0.00    +0.000 A 
ATOM     40  C   UNL     1     108.659 131.544 136.878  0.00  0.00    +0.000 A 
ATOM     41  C   UNL     1     109.196 132.015 135.639  0.00  0.00    +0.000 A 
ATOM     42  C   UNL     1     108.563 131.950 136.166  0.00  0.00    +0.000 A 
BRANCH  40  43
ATOM     43  O   UNL     1     108.027 131.478 137.404  0.00  0.00    +0.000 OA
ATOM     44  C   UNL     1     108.157 131.551 138.215  0.00  0.00    +0.000 C 
ENDBRANCH  40  43
BRANCH  42  45
ATOM     45  O   UNL     1     107.835 132.289 135.980  0.00  0.00    +0.000 OA
ATOM     46  C   UNL     1     107.383 131.982 135.361  0.00  0.00    +0.000 C 
ENDBRANCH  42  45
ENDBRANCH   6  37
BRANCH  11  47
ATOM     47  O   UNL     1     113.226 130.563 139.378  0.00  0.00    +0.000 OA
ATOM     48  C   UNL     1     114.045 130.575 139.477  0.00  0.00    +0.000 C 
ENDBRANCH  11  47
TORSDOF 9
ENDMDL
MODEL 4
REMARK VINA RESULT:      -9.6      6.413      9.334
REMARK  Name = 75072287
REMARK  9 active torsions:
REMARK  status: ('A' for Active; 'I' for Inactive)
REMARK    1  A    between atoms: O_3  and  C_31
REMARK    2  A    between atoms: O_4  and  C_32
REMARK    3  A    between atoms: O_7  and  C_37
REMARK    4  A    between atoms: O_8  and  C_38
REMARK    5  A    between atoms: O_9  and  C_41
REMARK    6  A    between atoms: O_10  and  C_42
REMARK    7  A    between atoms: C_19  and  C_27
REMARK    8  A    between atoms: C_20  and  C_28
REMARK    9  A    between atoms: C_21  and  C_22
REMARK                            x       y       z     vdW  Elec       q    Type
REMARK                         _______ _______ _______ _____ _____    ______ ____
ROOT
ATOM      1  O   UNL     1     105.115 129.461 141.953  0.00  0.00    +0.000 OA
ATOM      2  O   UNL     1     106.658 130.063 141.973  0.00  0.00    +0.000 OA
ATOM      3  C   UNL     1     105.670 128.130 142.209  0.00  0.00    +0.000 A 
ATOM      4  C   UNL     1     104.882 127.789 142.204  0.00  0.00    +0.000 C 
ATOM      5  C   UNL     1     104.201 128.297 142.071  0.00  0.00    +0.000 C 
ATOM      6  C   UNL     1     104.318 129.138 141.945  0.00  0.00    +0.000 C 
ATOM      7  C   UNL     1     106.320 127.637 142.337  0.00  0.00    +0.000 A 
ATOM      8  C   UNL     1     105.783 128.938 142.087  0.00  0.00    +0.000 A 
ATOM      9  C   UNL     1     107.082 127.953 142.343  0.00  0.00    +0.000 A 
ATOM     10  C   UNL     1     106.545 129.253 142.094  0.00  0.00    +0.000 A 
ATOM     11  C   UNL     1     107.194 128.762 142.222  0.00  0.00    +0.000 A 
ENDROOT
BRANCH   7  18
ATOM     12  O   UNL     1     106.084 125.385 144.139  0.00  0.00    +0.000 OA
ATOM     13  O   UNL     1     105.870 124.404 142.822  0.00  0.00    +0.000 OA
ATOM     14  C   UNL     1     106.203 126.524 143.224  0.00  0.00    +0.000 A 
ATOM     15  C   UNL     1     106.317 127.058 143.888  0.00  0.00    +0.000 C 
ATOM     16  C   UNL     1     106.313 126.746 144.688  0.00  0.00    +0.000 C 
ATOM     17  C   UNL     1     106.196 125.904 144.814  0.00  0.00    +0.000 C 
ATOM     18  C   UNL     1     106.208 126.830 142.458  0.00  0.00    +0.000 A 
ATOM     19  C   UNL     1     106.090 125.715 143.345  0.00  0.00    +0.000 A 
ATOM     20  C   UNL     1     106.099 126.326 141.812  0.00  0.00    +0.000 A 
ATOM     21  C   UNL     1     105.982 125.213 142.700  0.00  0.00    +0.000 A 
ATOM     22  C   UNL     1     105.987 125.518 141.933  0.00  0.00    +0.000 A 
BRANCH  17  24
ATOM     23  O   UNL     1     107.599 125.150 147.187  0.00  0.00    +0.000 OA
ATOM     24  C   UNL     1     106.191 125.596 145.580  0.00  0.00    +0.000 A 
ATOM     25  C   UNL     1     105.481 125.357 145.924  0.00  0.00    +0.000 A 
ATOM     26  C   UNL     1     106.896 125.527 146.001  0.00  0.00    +0.000 A 
ATOM     27  C   UNL     1     105.476 125.049 146.689  0.00  0.00    +0.000 A 
ATOM     28  C   UNL     1     106.892 125.219 146.767  0.00  0.00    +0.000 A 
ATOM     29  C   UNL     1     106.181 124.980 147.111  0.00  0.00    +0.000 A 
BRANCH  27  30
ATOM     30  O   UNL     1     104.765 124.810 147.033  0.00  0.00    +0.000 OA
ATOM     31  C   UNL     1     104.127 124.595 146.556  0.00  0.00    +0.000 C 
ENDBRANCH  27  30
BRANCH  29  32
ATOM     32  O   UNL     1     106.177 124.672 147.875  0.00  0.00    +0.000 OA
ATOM     33  C   UNL     1     106.386 125.150 148.514  0.00  0.00    +0.000 C 
ENDBRANCH  29  32
ENDBRANCH  17  24
BRANCH  22  34
ATOM     34  O   UNL     1     105.879 125.016 141.289  0.00  0.00    +0.000 OA
ATOM     35  C   UNL     1     106.449 124.980 140.693  0.00  0.00    +0.000 C 
ENDBRANCH  22  34
ENDBRANCH   7  18
BRANCH   6  37
ATOM     36  O   UNL     1     102.431 131.048 142.925  0.00  0.00    +0.000 OA
ATOM     37  C   UNL     1     103.670 129.633 141.817  0.00  0.00    +0.000 A 
ATOM     38  C   UNL     1     103.318 129.667 141.072  0.00  0.00    +0.000 A 
ATOM     39  C   UNL     1     103.374 130.093 142.434  0.00  0.00    +0.000 A 
ATOM     40  C   UNL     1     102.670 130.162 140.944  0.00  0.00    +0.000 A 
ATOM     41  C   UNL     1     102.727 130.588 142.308  0.00  0.00    +0.000 A 
ATOM     42  C   UNL     1     102.374 130.622 141.561  0.00  0.00    +0.000 A 
BRANCH  40  43
ATOM     43  O   UNL     1     102.318 130.196 140.199  0.00  0.00    +0.000 OA
ATOM     44  C   UNL     1     102.305 129.526 139.718  0.00  0.00    +0.000 C 
ENDBRANCH  40  43
BRANCH  42  45
ATOM     45  O   UNL     1     101.727 131.117 141.434  0.00  0.00    +0.000 OA
ATOM     46  C   UNL     1     101.800 131.930 141.554  0.00  0.00    +0.000 C 
ENDBRANCH  42  45
ENDBRANCH   6  37
BRANCH  11  47
ATOM     47  O   UNL     1     107.956 129.077 142.228  0.00  0.00    +0.000 OA
ATOM     48  C   UNL     1     108.524 128.797 141.700  0.00  0.00    +0.000 C 
ENDBRANCH  11  47
TORSDOF 9
ENDMDL
MODEL 5
REMARK VINA RESULT:      -9.6      6.445     10.013
REMARK  Name = 75072287
REMARK  9 active torsions:
REMARK  status: ('A' for Active; 'I' for Inactive)
REMARK    1  A    between atoms: O_3  and  C_31
REMARK    2  A    between atoms: O_4  and  C_32
REMARK    3  A    between atoms: O_7  and  C_37
REMARK    4  A    between atoms: O_8  and  C_38
REMARK    5  A    between atoms: O_9  and  C_41
REMARK    6  A    between atoms: O_10  and  C_42
REMARK    7  A    between atoms: C_19  and  C_27
REMARK    8  A    between atoms: C_20  and  C_28
REMARK    9  A    between atoms: C_21  and  C_22
REMARK                            x       y       z     vdW  Elec       q    Type
REMARK                         _______ _______ _______ _____ _____    ______ ____
ROOT
ATOM      1  O   UNL     1     106.097 125.374 144.191  0.00  0.00    +0.000 OA
ATOM      2  O   UNL     1     105.869 124.397 142.874  0.00  0.00    +0.000 OA
ATOM      3  C   UNL     1     106.218 126.513 143.278  0.00  0.00    +0.000 A 
ATOM      4  C   UNL     1     106.340 127.045 143.942  0.00  0.00    +0.000 C 
ATOM      5  C   UNL     1     106.339 126.732 144.742  0.00  0.00    +0.000 C 
ATOM      6  C   UNL     1     106.217 125.891 144.868  0.00  0.00    +0.000 C 
ATOM      7  C   UNL     1     106.220 126.821 142.512  0.00  0.00    +0.000 A 
ATOM      8  C   UNL     1     106.101 125.706 143.399  0.00  0.00    +0.000 A 
ATOM      9  C   UNL     1     106.104 126.319 141.867  0.00  0.00    +0.000 A 
ATOM     10  C   UNL     1     105.986 125.205 142.753  0.00  0.00    +0.000 A 
ATOM     11  C   UNL     1     105.987 125.512 141.988  0.00  0.00    +0.000 A 
ENDROOT
BRANCH   7  18
ATOM     12  O   UNL     1     105.142 129.458 142.005  0.00  0.00    +0.000 OA
ATOM     13  O   UNL     1     106.688 130.051 142.030  0.00  0.00    +0.000 OA
ATOM     14  C   UNL     1     105.691 128.123 142.262  0.00  0.00    +0.000 A 
ATOM     15  C   UNL     1     104.900 127.786 142.254  0.00  0.00    +0.000 C 
ATOM     16  C   UNL     1     104.223 128.298 142.119  0.00  0.00    +0.000 C 
ATOM     17  C   UNL     1     104.345 129.139 141.994  0.00  0.00    +0.000 C 
ATOM     18  C   UNL     1     106.337 127.627 142.392  0.00  0.00    +0.000 A 
ATOM     19  C   UNL     1     105.808 128.931 142.141  0.00  0.00    +0.000 A 
ATOM     20  C   UNL     1     107.101 127.940 142.401  0.00  0.00    +0.000 A 
ATOM     21  C   UNL     1     106.571 129.243 142.151  0.00  0.00    +0.000 A 
ATOM     22  C   UNL     1     107.218 128.748 142.280  0.00  0.00    +0.000 A 
BRANCH  17  24
ATOM     23  O   UNL     1     102.476 131.072 142.963  0.00  0.00    +0.000 OA
ATOM     24  C   UNL     1     103.700 129.636 141.864  0.00  0.00    +0.000 A 
ATOM     25  C   UNL     1     103.344 129.666 141.120  0.00  0.00    +0.000 A 
ATOM     26  C   UNL     1     103.410 130.105 142.478  0.00  0.00    +0.000 A 
ATOM     27  C   UNL     1     102.699 130.164 140.990  0.00  0.00    +0.000 A 
ATOM     28  C   UNL     1     102.765 130.604 142.348  0.00  0.00    +0.000 A 
ATOM     29  C   UNL     1     102.410 130.633 141.604  0.00  0.00    +0.000 A 
BRANCH  27  30
ATOM     30  O   UNL     1     102.344 130.193 140.246  0.00  0.00    +0.000 OA
ATOM     31  C   UNL     1     102.323 129.518 139.772  0.00  0.00    +0.000 C 
ENDBRANCH  27  30
BRANCH  29  32
ATOM     32  O   UNL     1     101.766 131.130 141.475  0.00  0.00    +0.000 OA
ATOM     33  C   UNL     1     101.853 131.947 141.551  0.00  0.00    +0.000 C 
ENDBRANCH  29  32
ENDBRANCH  17  24
BRANCH  22  34
ATOM     34  O   UNL     1     107.981 129.059 142.290  0.00  0.00    +0.000 OA
ATOM     35  C   UNL     1     108.566 128.734 141.807  0.00  0.00    +0.000 C 
ENDBRANCH  22  34
ENDBRANCH   7  18
BRANCH   6  37
ATOM     36  O   UNL     1     107.627 125.149 147.241  0.00  0.00    +0.000 OA
ATOM     37  C   UNL     1     106.215 125.581 145.633  0.00  0.00    +0.000 A 
ATOM     38  C   UNL     1     105.508 125.334 145.976  0.00  0.00    +0.000 A 
ATOM     39  C   UNL     1     106.922 125.519 146.054  0.00  0.00    +0.000 A 
ATOM     40  C   UNL     1     105.506 125.024 146.741  0.00  0.00    +0.000 A 
ATOM     41  C   UNL     1     106.921 125.210 146.819  0.00  0.00    +0.000 A 
ATOM     42  C   UNL     1     106.212 124.962 147.163  0.00  0.00    +0.000 A 
BRANCH  40  43
ATOM     43  O   UNL     1     104.797 124.777 147.084  0.00  0.00    +0.000 OA
ATOM     44  C   UNL     1     104.164 124.552 146.606  0.00  0.00    +0.000 C 
ENDBRANCH  40  43
BRANCH  42  45
ATOM     45  O   UNL     1     106.210 124.653 147.927  0.00  0.00    +0.000 OA
ATOM     46  C   UNL     1     106.385 125.141 148.569  0.00  0.00    +0.000 C 
ENDBRANCH  42  45
ENDBRANCH   6  37
BRANCH  11  47
ATOM     47  O   UNL     1     105.872 125.011 141.343  0.00  0.00    +0.000 OA
ATOM     48  C   UNL     1     106.408 125.015 140.716  0.00  0.00    +0.000 C 
ENDBRANCH  11  47
TORSDOF 9
ENDMDL
MODEL 6
REMARK VINA RESULT:      -9.5      3.376      5.335
REMARK  Name = 75072287
REMARK  9 active torsions:
REMARK  status: ('A' for Active; 'I' for Inactive)
REMARK    1  A    between atoms: O_3  and  C_31
REMARK    2  A    between atoms: O_4  and  C_32
REMARK    3  A    between atoms: O_7  and  C_37
REMARK    4  A    between atoms: O_8  and  C_38
REMARK    5  A    between atoms: O_9  and  C_41
REMARK    6  A    between atoms: O_10  and  C_42
REMARK    7  A    between atoms: C_19  and  C_27
REMARK    8  A    between atoms: C_20  and  C_28
REMARK    9  A    between atoms: C_21  and  C_22
REMARK                            x       y       z     vdW  Elec       q    Type
REMARK                         _______ _______ _______ _____ _____    ______ ____
ROOT
ATOM      1  O   UNL     1     112.719 128.426 138.336  0.00  0.00    +0.000 OA
ATOM      2  O   UNL     1     113.262 126.988 138.954  0.00  0.00    +0.000 OA
ATOM      3  C   UNL     1     113.178 129.083 139.562  0.00  0.00    +0.000 A 
ATOM      4  C   UNL     1     112.906 129.844 139.269  0.00  0.00    +0.000 C 
ATOM      5  C   UNL     1     112.535 129.891 138.494  0.00  0.00    +0.000 C 
ATOM      6  C   UNL     1     112.441 129.178 138.025  0.00  0.00    +0.000 C 
ATOM      7  C   UNL     1     113.534 129.045 140.306  0.00  0.00    +0.000 A 
ATOM      8  C   UNL     1     113.087 128.398 139.112  0.00  0.00    +0.000 A 
ATOM      9  C   UNL     1     113.798 128.320 140.599  0.00  0.00    +0.000 A 
ATOM     10  C   UNL     1     113.353 127.674 139.405  0.00  0.00    +0.000 A 
ATOM     11  C   UNL     1     113.708 127.635 140.148  0.00  0.00    +0.000 A 
ENDROOT
BRANCH   7  18
ATOM     12  O   UNL     1     112.662 130.745 142.480  0.00  0.00    +0.000 OA
ATOM     13  O   UNL     1     113.896 131.785 142.108  0.00  0.00    +0.000 OA
ATOM     14  C   UNL     1     113.106 129.886 141.378  0.00  0.00    +0.000 A 
ATOM     15  C   UNL     1     112.475 129.327 141.548  0.00  0.00    +0.000 C 
ATOM     16  C   UNL     1     111.931 129.484 142.194  0.00  0.00    +0.000 C 
ATOM     17  C   UNL     1     112.026 130.198 142.663  0.00  0.00    +0.000 C 
ATOM     18  C   UNL     1     113.624 129.729 140.756  0.00  0.00    +0.000 A 
ATOM     19  C   UNL     1     113.196 130.571 141.829  0.00  0.00    +0.000 A 
ATOM     20  C   UNL     1     114.234 130.258 140.585  0.00  0.00    +0.000 A 
ATOM     21  C   UNL     1     113.805 131.099 141.657  0.00  0.00    +0.000 A 
ATOM     22  C   UNL     1     114.325 130.943 141.035  0.00  0.00    +0.000 A 
BRANCH  17  24
ATOM     23  O   UNL     1     109.677 131.484 143.662  0.00  0.00    +0.000 OA
ATOM     24  C   UNL     1     111.508 130.357 143.286  0.00  0.00    +0.000 A 
ATOM     25  C   UNL     1     111.647 130.032 144.031  0.00  0.00    +0.000 A 
ATOM     26  C   UNL     1     110.851 130.841 143.163  0.00  0.00    +0.000 A 
ATOM     27  C   UNL     1     111.129 130.191 144.653  0.00  0.00    +0.000 A 
ATOM     28  C   UNL     1     110.333 131.000 143.785  0.00  0.00    +0.000 A 
ATOM     29  C   UNL     1     110.473 130.675 144.531  0.00  0.00    +0.000 A 
BRANCH  27  30
ATOM     30  O   UNL     1     111.269 129.865 145.399  0.00  0.00    +0.000 OA
ATOM     31  C   UNL     1     111.793 129.234 145.482  0.00  0.00    +0.000 C 
ENDBRANCH  27  30
BRANCH  29  32
ATOM     32  O   UNL     1     109.955 130.834 145.152  0.00  0.00    +0.000 OA
ATOM     33  C   UNL     1     109.870 131.605 145.431  0.00  0.00    +0.000 C 
ENDBRANCH  29  32
ENDBRANCH  17  24
BRANCH  22  34
ATOM     34  O   UNL     1     114.934 131.472 140.864  0.00  0.00    +0.000 OA
ATOM     35  C   UNL     1     115.708 131.198 140.785  0.00  0.00    +0.000 C 
ENDBRANCH  22  34
ENDBRANCH   7  18
BRANCH   6  37
ATOM     36  O   UNL     1     110.097 129.059 136.394  0.00  0.00    +0.000 OA
ATOM     37  C   UNL     1     112.086 129.214 137.282  0.00  0.00    +0.000 A 
ATOM     38  C   UNL     1     112.546 129.345 136.610  0.00  0.00    +0.000 A 
ATOM     39  C   UNL     1     111.269 129.119 137.209  0.00  0.00    +0.000 A 
ATOM     40  C   UNL     1     112.191 129.381 135.866  0.00  0.00    +0.000 A 
ATOM     41  C   UNL     1     110.913 129.155 136.466  0.00  0.00    +0.000 A 
ATOM     42  C   UNL     1     111.375 129.286 135.794  0.00  0.00    +0.000 A 
BRANCH  40  43
ATOM     43  O   UNL     1     112.652 129.513 135.195  0.00  0.00    +0.000 OA
ATOM     44  C   UNL     1     113.429 129.236 135.167  0.00  0.00    +0.000 C 
ENDBRANCH  40  43
BRANCH  42  45
ATOM     45  O   UNL     1     111.019 129.322 135.051  0.00  0.00    +0.000 OA
ATOM     46  C   UNL     1     110.449 129.898 134.895  0.00  0.00    +0.000 C 
ENDBRANCH  42  45
ENDBRANCH   6  37
BRANCH  11  47
ATOM     47  O   UNL     1     113.972 126.911 140.441  0.00  0.00    +0.000 OA
ATOM     48  C   UNL     1     114.699 126.863 140.830  0.00  0.00    +0.000 C 
ENDBRANCH  11  47
TORSDOF 9
ENDMDL
MODEL 7
REMARK VINA RESULT:      -9.5      3.348      7.085
REMARK  Name = 75072287
REMARK  9 active torsions:
REMARK  status: ('A' for Active; 'I' for Inactive)
REMARK    1  A    between atoms: O_3  and  C_31
REMARK    2  A    between atoms: O_4  and  C_32
REMARK    3  A    between atoms: O_7  and  C_37
REMARK    4  A    between atoms: O_8  and  C_38
REMARK    5  A    between atoms: O_9  and  C_41
REMARK    6  A    between atoms: O_10  and  C_42
REMARK    7  A    between atoms: C_19  and  C_27
REMARK    8  A    between atoms: C_20  and  C_28
REMARK    9  A    between atoms: C_21  and  C_22
REMARK                            x       y       z     vdW  Elec       q    Type
REMARK                         _______ _______ _______ _____ _____    ______ ____
ROOT
ATOM      1  O   UNL     1     112.671 130.726 142.450  0.00  0.00    +0.000 OA
ATOM      2  O   UNL     1     113.890 131.784 142.082  0.00  0.00    +0.000 OA
ATOM      3  C   UNL     1     113.123 129.877 141.345  0.00  0.00    +0.000 A 
ATOM      4  C   UNL     1     112.500 129.310 141.512  0.00  0.00    +0.000 C 
ATOM      5  C   UNL     1     111.955 129.457 142.161  0.00  0.00    +0.000 C 
ATOM      6  C   UNL     1     112.041 130.170 142.633  0.00  0.00    +0.000 C 
ATOM      7  C   UNL     1     113.644 129.730 140.721  0.00  0.00    +0.000 A 
ATOM      8  C   UNL     1     113.205 130.562 141.799  0.00  0.00    +0.000 A 
ATOM      9  C   UNL     1     114.245 130.268 140.552  0.00  0.00    +0.000 A 
ATOM     10  C   UNL     1     113.808 131.099 141.628  0.00  0.00    +0.000 A 
ATOM     11  C   UNL     1     114.328 130.952 141.005  0.00  0.00    +0.000 A 
ENDROOT
BRANCH   7  18
ATOM     12  O   UNL     1     112.768 128.428 138.290  0.00  0.00    +0.000 OA
ATOM     13  O   UNL     1     113.314 126.992 138.908  0.00  0.00    +0.000 OA
ATOM     14  C   UNL     1     113.212 129.085 139.522  0.00  0.00    +0.000 A 
ATOM     15  C   UNL     1     112.938 129.844 139.228  0.00  0.00    +0.000 C 
ATOM     16  C   UNL     1     112.574 129.891 138.451  0.00  0.00    +0.000 C 
ATOM     17  C   UNL     1     112.488 129.179 137.979  0.00  0.00    +0.000 C 
ATOM     18  C   UNL     1     113.561 129.046 140.269  0.00  0.00    +0.000 A 
ATOM     19  C   UNL     1     113.130 128.400 139.069  0.00  0.00    +0.000 A 
ATOM     20  C   UNL     1     113.828 128.322 140.562  0.00  0.00    +0.000 A 
ATOM     21  C   UNL     1     113.397 127.677 139.362  0.00  0.00    +0.000 A 
ATOM     22  C   UNL     1     113.746 127.638 140.109  0.00  0.00    +0.000 A 
BRANCH  17  24
ATOM     23  O   UNL     1     110.158 129.060 136.328  0.00  0.00    +0.000 OA
ATOM     24  C   UNL     1     112.139 129.215 137.233  0.00  0.00    +0.000 A 
ATOM     25  C   UNL     1     112.605 129.346 136.565  0.00  0.00    +0.000 A 
ATOM     26  C   UNL     1     111.323 129.119 137.153  0.00  0.00    +0.000 A 
ATOM     27  C   UNL     1     112.256 129.383 135.818  0.00  0.00    +0.000 A 
ATOM     28  C   UNL     1     110.974 129.155 136.407  0.00  0.00    +0.000 A 
ATOM     29  C   UNL     1     111.440 129.287 135.739  0.00  0.00    +0.000 A 
BRANCH  27  30
ATOM     30  O   UNL     1     112.723 129.514 135.151  0.00  0.00    +0.000 OA
ATOM     31  C   UNL     1     113.495 129.224 135.123  0.00  0.00    +0.000 C 
ENDBRANCH  27  30
BRANCH  29  32
ATOM     32  O   UNL     1     111.091 129.323 134.993  0.00  0.00    +0.000 OA
ATOM     33  C   UNL     1     110.480 129.858 134.849  0.00  0.00    +0.000 C 
ENDBRANCH  29  32
ENDBRANCH  17  24
BRANCH  22  34
ATOM     34  O   UNL     1     114.013 126.915 140.402  0.00  0.00    +0.000 OA
ATOM     35  C   UNL     1     114.738 126.870 140.793  0.00  0.00    +0.000 C 
ENDBRANCH  22  34
ENDBRANCH   7  18
BRANCH   6  37
ATOM     36  O   UNL     1     109.656 131.388 143.630  0.00  0.00    +0.000 OA
ATOM     37  C   UNL     1     111.522 130.319 143.257  0.00  0.00    +0.000 A 
ATOM     38  C   UNL     1     111.676 130.009 144.005  0.00  0.00    +0.000 A 
ATOM     39  C   UNL     1     110.849 130.779 143.132  0.00  0.00    +0.000 A 
ATOM     40  C   UNL     1     111.158 130.159 144.629  0.00  0.00    +0.000 A 
ATOM     41  C   UNL     1     110.329 130.929 143.755  0.00  0.00    +0.000 A 
ATOM     42  C   UNL     1     110.484 130.618 144.504  0.00  0.00    +0.000 A 
BRANCH  40  43
ATOM     43  O   UNL     1     111.313 129.848 145.378  0.00  0.00    +0.000 OA
ATOM     44  C   UNL     1     111.861 129.238 145.466  0.00  0.00    +0.000 C 
ENDBRANCH  40  43
BRANCH  42  45
ATOM     45  O   UNL     1     109.966 130.768 145.127  0.00  0.00    +0.000 OA
ATOM     46  C   UNL     1     109.855 131.541 145.395  0.00  0.00    +0.000 C 
ENDBRANCH  42  45
ENDBRANCH   6  37
BRANCH  11  47
ATOM     47  O   UNL     1     114.930 131.489 140.835  0.00  0.00    +0.000 OA
ATOM     48  C   UNL     1     115.707 131.225 140.750  0.00  0.00    +0.000 C 
ENDBRANCH  11  47
TORSDOF 9
ENDMDL
MODEL 8
REMARK VINA RESULT:      -9.4      2.633      5.335
REMARK  Name = 75072287
REMARK  9 active torsions:
REMARK  status: ('A' for Active; 'I' for Inactive)
REMARK    1  A    between atoms: O_3  and  C_31
REMARK    2  A    between atoms: O_4  and  C_32
REMARK    3  A    between atoms: O_7  and  C_37
REMARK    4  A    between atoms: O_8  and  C_38
REMARK    5  A    between atoms: O_9  and  C_41
REMARK    6  A    between atoms: O_10  and  C_42
REMARK    7  A    between atoms: C_19  and  C_27
REMARK    8  A    between atoms: C_20  and  C_28
REMARK    9  A    between atoms: C_21  and  C_22
REMARK                            x       y       z     vdW  Elec       q    Type
REMARK                         _______ _______ _______ _____ _____    ______ ____
ROOT
ATOM      1  O   UNL     1     113.466 127.262 136.314  0.00  0.00    +0.000 OA
ATOM      2  O   UNL     1     114.190 128.169 135.132  0.00  0.00    +0.000 OA
ATOM      3  C   UNL     1     113.337 128.480 137.118  0.00  0.00    +0.000 A 
ATOM      4  C   UNL     1     112.958 128.037 137.748  0.00  0.00    +0.000 C 
ATOM      5  C   UNL     1     112.834 127.191 137.656  0.00  0.00    +0.000 C 
ATOM      6  C   UNL     1     113.089 126.801 136.934  0.00  0.00    +0.000 C 
ATOM      7  C   UNL     1     113.454 129.292 137.213  0.00  0.00    +0.000 A 
ATOM      8  C   UNL     1     113.582 128.106 136.425  0.00  0.00    +0.000 A 
ATOM      9  C   UNL     1     113.816 129.728 136.614  0.00  0.00    +0.000 A 
ATOM     10  C   UNL     1     113.945 128.544 135.826  0.00  0.00    +0.000 A 
ATOM     11  C   UNL     1     114.062 129.354 135.921  0.00  0.00    +0.000 A 
ENDROOT
BRANCH   7  18
ATOM     12  O   UNL     1     111.455 130.784 138.678  0.00  0.00    +0.000 OA
ATOM     13  O   UNL     1     112.473 130.789 139.985  0.00  0.00    +0.000 OA
ATOM     14  C   UNL     1     112.469 130.029 137.939  0.00  0.00    +0.000 A 
ATOM     15  C   UNL     1     111.962 130.010 137.244  0.00  0.00    +0.000 C 
ATOM     16  C   UNL     1     111.190 130.386 137.273  0.00  0.00    +0.000 C 
ATOM     17  C   UNL     1     110.935 130.776 137.995  0.00  0.00    +0.000 C 
ATOM     18  C   UNL     1     113.209 129.666 137.905  0.00  0.00    +0.000 A 
ATOM     19  C   UNL     1     112.224 130.403 138.632  0.00  0.00    +0.000 A 
ATOM     20  C   UNL     1     113.704 129.677 138.565  0.00  0.00    +0.000 A 
ATOM     21  C   UNL     1     112.718 130.414 139.291  0.00  0.00    +0.000 A 
ATOM     22  C   UNL     1     113.459 130.052 139.259  0.00  0.00    +0.000 A 
BRANCH  17  24
ATOM     23  O   UNL     1     109.087 132.726 137.021  0.00  0.00    +0.000 OA
ATOM     24  C   UNL     1     110.195 131.139 138.031  0.00  0.00    +0.000 A 
ATOM     25  C   UNL     1     109.640 130.892 138.588  0.00  0.00    +0.000 A 
ATOM     26  C   UNL     1     110.010 131.750 137.508  0.00  0.00    +0.000 A 
ATOM     27  C   UNL     1     108.901 131.256 138.624  0.00  0.00    +0.000 A 
ATOM     28  C   UNL     1     109.271 132.115 137.544  0.00  0.00    +0.000 A 
ATOM     29  C   UNL     1     108.716 131.867 138.102  0.00  0.00    +0.000 A 
BRANCH  27  30
ATOM     30  O   UNL     1     108.346 131.008 139.182  0.00  0.00    +0.000 OA
ATOM     31  C   UNL     1     108.597 130.707 139.908  0.00  0.00    +0.000 C 
ENDBRANCH  27  30
BRANCH  29  32
ATOM     32  O   UNL     1     107.977 132.230 138.137  0.00  0.00    +0.000 OA
ATOM     33  C   UNL     1     107.421 132.094 137.543  0.00  0.00    +0.000 C 
ENDBRANCH  29  32
ENDBRANCH  17  24
BRANCH  22  34
ATOM     34  O   UNL     1     113.954 130.063 139.918  0.00  0.00    +0.000 OA
ATOM     35  C   UNL     1     114.646 130.513 139.908  0.00  0.00    +0.000 C 
ENDBRANCH  22  34
ENDBRANCH   7  18
BRANCH   6  37
ATOM     36  O   UNL     1     114.023 124.116 137.226  0.00  0.00    +0.000 OA
ATOM     37  C   UNL     1     112.973 125.990 136.837  0.00  0.00    +0.000 A 
ATOM     38  C   UNL     1     112.276 125.710 136.498  0.00  0.00    +0.000 A 
ATOM     39  C   UNL     1     113.555 125.458 137.080  0.00  0.00    +0.000 A 
ATOM     40  C   UNL     1     112.160 124.899 136.401  0.00  0.00    +0.000 A 
ATOM     41  C   UNL     1     113.441 124.648 136.984  0.00  0.00    +0.000 A 
ATOM     42  C   UNL     1     112.742 124.367 136.643  0.00  0.00    +0.000 A 
BRANCH  40  43
ATOM     43  O   UNL     1     111.462 124.620 136.061  0.00  0.00    +0.000 OA
ATOM     44  C   UNL     1     110.971 125.135 135.643  0.00  0.00    +0.000 C 
ENDBRANCH  40  43
BRANCH  42  45
ATOM     45  O   UNL     1     112.627 123.557 136.547  0.00  0.00    +0.000 OA
ATOM     46  C   UNL     1     112.353 123.102 137.178  0.00  0.00    +0.000 C 
ENDBRANCH  42  45
ENDBRANCH   6  37
BRANCH  11  47
ATOM     47  O   UNL     1     114.424 129.791 135.322  0.00  0.00    +0.000 OA
ATOM     48  C   UNL     1     115.023 130.327 135.507  0.00  0.00    +0.000 C 
ENDBRANCH  11  47
TORSDOF 9
ENDMDL
MODEL 9
REMARK VINA RESULT:      -9.2      2.787      5.396
REMARK  Name = 75072287
REMARK  9 active torsions:
REMARK  status: ('A' for Active; 'I' for Inactive)
REMARK    1  A    between atoms: O_3  and  C_31
REMARK    2  A    between atoms: O_4  and  C_32
REMARK    3  A    between atoms: O_7  and  C_37
REMARK    4  A    between atoms: O_8  and  C_38
REMARK    5  A    between atoms: O_9  and  C_41
REMARK    6  A    between atoms: O_10  and  C_42
REMARK    7  A    between atoms: C_19  and  C_27
REMARK    8  A    between atoms: C_20  and  C_28
REMARK    9  A    between atoms: C_21  and  C_22
REMARK                            x       y       z     vdW  Elec       q    Type
REMARK                         _______ _______ _______ _____ _____    ______ ____
ROOT
ATOM      1  O   UNL     1     110.488 127.457 137.529  0.00  0.00    +0.000 OA
ATOM      2  O   UNL     1     109.106 128.360 137.396  0.00  0.00    +0.000 OA
ATOM      3  C   UNL     1     111.106 128.576 138.243  0.00  0.00    +0.000 A 
ATOM      4  C   UNL     1     111.837 128.133 138.328  0.00  0.00    +0.000 C 
ATOM      5  C   UNL     1     111.889 127.337 138.006  0.00  0.00    +0.000 C 
ATOM      6  C   UNL     1     111.211 126.997 137.603  0.00  0.00    +0.000 C 
ATOM      7  C   UNL     1     111.062 129.340 138.555  0.00  0.00    +0.000 A 
ATOM      8  C   UNL     1     110.454 128.250 137.857  0.00  0.00    +0.000 A 
ATOM      9  C   UNL     1     110.366 129.775 138.480  0.00  0.00    +0.000 A 
ATOM     10  C   UNL     1     109.758 128.687 137.782  0.00  0.00    +0.000 A 
ATOM     11  C   UNL     1     109.714 129.449 138.093  0.00  0.00    +0.000 A 
ENDROOT
BRANCH   7  18
ATOM     12  O   UNL     1     112.383 130.127 141.006  0.00  0.00    +0.000 OA
ATOM     13  O   UNL     1     113.669 130.645 140.101  0.00  0.00    +0.000 OA
ATOM     14  C   UNL     1     111.716 129.729 139.763  0.00  0.00    +0.000 A 
ATOM     15  C   UNL     1     111.034 129.452 140.207  0.00  0.00    +0.000 C 
ATOM     16  C   UNL     1     111.031 129.515 141.064  0.00  0.00    +0.000 C 
ATOM     17  C   UNL     1     111.710 129.855 141.466  0.00  0.00    +0.000 C 
ATOM     18  C   UNL     1     111.713 129.666 138.941  0.00  0.00    +0.000 A 
ATOM     19  C   UNL     1     112.368 130.056 140.150  0.00  0.00    +0.000 A 
ATOM     20  C   UNL     1     112.362 129.929 138.505  0.00  0.00    +0.000 A 
ATOM     21  C   UNL     1     113.016 130.319 139.714  0.00  0.00    +0.000 A 
ATOM     22  C   UNL     1     113.014 130.256 138.891  0.00  0.00    +0.000 A 
BRANCH  17  24
ATOM     23  O   UNL     1     111.773 128.623 144.044  0.00  0.00    +0.000 OA
ATOM     24  C   UNL     1     111.715 129.920 142.288  0.00  0.00    +0.000 A 
ATOM     25  C   UNL     1     111.695 130.663 142.645  0.00  0.00    +0.000 A 
ATOM     26  C   UNL     1     111.741 129.240 142.755  0.00  0.00    +0.000 A 
ATOM     27  C   UNL     1     111.700 130.727 143.467  0.00  0.00    +0.000 A 
ATOM     28  C   UNL     1     111.747 129.303 143.578  0.00  0.00    +0.000 A 
ATOM     29  C   UNL     1     111.726 130.048 143.934  0.00  0.00    +0.000 A 
BRANCH  27  30
ATOM     30  O   UNL     1     111.680 131.472 143.823  0.00  0.00    +0.000 OA
ATOM     31  C   UNL     1     111.985 132.127 143.425  0.00  0.00    +0.000 C 
ENDBRANCH  27  30
BRANCH  29  32
ATOM     32  O   UNL     1     111.732 130.112 144.755  0.00  0.00    +0.000 OA
ATOM     33  C   UNL     1     111.083 129.852 145.194  0.00  0.00    +0.000 C 
ENDBRANCH  29  32
ENDBRANCH  17  24
BRANCH  22  34
ATOM     34  O   UNL     1     113.663 130.518 138.455  0.00  0.00    +0.000 OA
ATOM     35  C   UNL     1     113.548 130.984 137.783  0.00  0.00    +0.000 C 
ENDBRANCH  22  34
ENDBRANCH   7  18
BRANCH   6  37
ATOM     36  O   UNL     1     111.544 124.184 137.980  0.00  0.00    +0.000 OA
ATOM     37  C   UNL     1     111.252 126.235 137.291  0.00  0.00    +0.000 A 
ATOM     38  C   UNL     1     111.169 126.116 136.479  0.00  0.00    +0.000 A 
ATOM     39  C   UNL     1     111.377 125.591 137.791  0.00  0.00    +0.000 A 
ATOM     40  C   UNL     1     111.211 125.353 136.167  0.00  0.00    +0.000 A 
ATOM     41  C   UNL     1     111.419 124.828 137.480  0.00  0.00    +0.000 A 
ATOM     42  C   UNL     1     111.336 124.709 136.667  0.00  0.00    +0.000 A 
BRANCH  40  43
ATOM     43  O   UNL     1     111.128 125.235 135.355  0.00  0.00    +0.000 OA
ATOM     44  C   UNL     1     110.646 125.738 134.912  0.00  0.00    +0.000 C 
ENDBRANCH  40  43
BRANCH  42  45
ATOM     45  O   UNL     1     111.378 123.947 136.356  0.00  0.00    +0.000 OA
ATOM     46  C   UNL     1     112.062 123.497 136.457  0.00  0.00    +0.000 C 
ENDBRANCH  42  45
ENDBRANCH   6  37
BRANCH  11  47
ATOM     47  O   UNL     1     109.018 129.885 138.019  0.00  0.00    +0.000 OA
ATOM     48  C   UNL     1     109.032 130.625 137.654  0.00  0.00    +0.000 C 
ENDBRANCH  11  47
TORSDOF 9
ENDMDL
MODEL 10
REMARK VINA RESULT:      -9.2      5.385      9.522
REMARK  Name = 75072287
REMARK  9 active torsions:
REMARK  status: ('A' for Active; 'I' for Inactive)
REMARK    1  A    between atoms: O_3  and  C_31
REMARK    2  A    between atoms: O_4  and  C_32
REMARK    3  A    between atoms: O_7  and  C_37
REMARK    4  A    between atoms: O_8  and  C_38
REMARK    5  A    between atoms: O_9  and  C_41
REMARK    6  A    between atoms: O_10  and  C_42
REMARK    7  A    between atoms: C_19  and  C_27
REMARK    8  A    between atoms: C_20  and  C_28
REMARK    9  A    between atoms: C_21  and  C_22
REMARK                            x       y       z     vdW  Elec       q    Type
REMARK                         _______ _______ _______ _____ _____    ______ ____
ROOT
ATOM      1  O   UNL     1     106.089 125.384 143.922  0.00  0.00    +0.000 OA
ATOM      2  O   UNL     1     106.370 124.419 142.605  0.00  0.00    +0.000 OA
ATOM      3  C   UNL     1     105.919 126.517 143.009  0.00  0.00    +0.000 A 
ATOM      4  C   UNL     1     105.770 127.042 143.672  0.00  0.00    +0.000 C 
ATOM      5  C   UNL     1     105.782 126.728 144.472  0.00  0.00    +0.000 C 
ATOM      6  C   UNL     1     105.942 125.894 144.598  0.00  0.00    +0.000 C 
ATOM      7  C   UNL     1     105.906 126.824 142.243  0.00  0.00    +0.000 A 
ATOM      8  C   UNL     1     106.073 125.716 143.130  0.00  0.00    +0.000 A 
ATOM      9  C   UNL     1     106.048 126.329 141.598  0.00  0.00    +0.000 A 
ATOM     10  C   UNL     1     106.215 125.221 142.484  0.00  0.00    +0.000 A 
ATOM     11  C   UNL     1     106.202 125.528 141.719  0.00  0.00    +0.000 A 
ENDROOT
BRANCH   7  18
ATOM     12  O   UNL     1     106.860 129.507 141.730  0.00  0.00    +0.000 OA
ATOM     13  O   UNL     1     105.289 130.030 141.759  0.00  0.00    +0.000 OA
ATOM     14  C   UNL     1     106.374 128.150 141.990  0.00  0.00    +0.000 A 
ATOM     15  C   UNL     1     107.180 127.849 141.980  0.00  0.00    +0.000 C 
ATOM     16  C   UNL     1     107.832 128.391 141.842  0.00  0.00    +0.000 C 
ATOM     17  C   UNL     1     107.671 129.225 141.717  0.00  0.00    +0.000 C 
ATOM     18  C   UNL     1     105.752 127.625 142.122  0.00  0.00    +0.000 A 
ATOM     19  C   UNL     1     106.220 128.951 141.869  0.00  0.00    +0.000 A 
ATOM     20  C   UNL     1     104.974 127.902 142.133  0.00  0.00    +0.000 A 
ATOM     21  C   UNL     1     105.443 129.227 141.880  0.00  0.00    +0.000 A 
ATOM     22  C   UNL     1     104.820 128.703 142.013  0.00  0.00    +0.000 A 
BRANCH  17  24
ATOM     23  O   UNL     1     109.612 131.067 142.723  0.00  0.00    +0.000 OA
ATOM     24  C   UNL     1     108.292 129.752 141.584  0.00  0.00    +0.000 A 
ATOM     25  C   UNL     1     108.564 129.886 140.817  0.00  0.00    +0.000 A 
ATOM     26  C   UNL     1     108.642 130.146 142.219  0.00  0.00    +0.000 A 
ATOM     27  C   UNL     1     109.185 130.413 140.685  0.00  0.00    +0.000 A 
ATOM     28  C   UNL     1     109.263 130.673 142.088  0.00  0.00    +0.000 A 
ATOM     29  C   UNL     1     109.534 130.806 141.320  0.00  0.00    +0.000 A 
BRANCH  27  30
ATOM     30  O   UNL     1     109.456 130.546 139.917  0.00  0.00    +0.000 OA
ATOM     31  C   UNL     1     108.946 130.447 139.276  0.00  0.00    +0.000 C 
ENDBRANCH  27  30
BRANCH  29  32
ATOM     32  O   UNL     1     110.154 131.333 141.188  0.00  0.00    +0.000 OA
ATOM     33  C   UNL     1     110.918 131.142 141.436  0.00  0.00    +0.000 C 
ENDBRANCH  29  32
ENDBRANCH  17  24
BRANCH  22  34
ATOM     34  O   UNL     1     104.043 128.979 142.024  0.00  0.00    +0.000 OA
ATOM     35  C   UNL     1     103.553 128.863 141.370  0.00  0.00    +0.000 C 
ENDBRANCH  22  34
ENDBRANCH   7  18
BRANCH   6  37
ATOM     36  O   UNL     1     107.364 125.315 147.009  0.00  0.00    +0.000 OA
ATOM     37  C   UNL     1     105.956 125.585 145.363  0.00  0.00    +0.000 A 
ATOM     38  C   UNL     1     105.273 125.255 145.687  0.00  0.00    +0.000 A 
ATOM     39  C   UNL     1     106.653 125.605 145.804  0.00  0.00    +0.000 A 
ATOM     40  C   UNL     1     105.286 124.946 146.452  0.00  0.00    +0.000 A 
ATOM     41  C   UNL     1     106.667 125.296 146.568  0.00  0.00    +0.000 A 
ATOM     42  C   UNL     1     105.983 124.966 146.893  0.00  0.00    +0.000 A 
BRANCH  40  43
ATOM     43  O   UNL     1     104.602 124.617 146.775  0.00  0.00    +0.000 OA
ATOM     44  C   UNL     1     104.040 124.266 146.283  0.00  0.00    +0.000 C 
ENDBRANCH  40  43
BRANCH  42  45
ATOM     45  O   UNL     1     105.997 124.657 147.656  0.00  0.00    +0.000 OA
ATOM     46  C   UNL     1     106.097 125.160 148.303  0.00  0.00    +0.000 C 
ENDBRANCH  42  45
ENDBRANCH   6  37
BRANCH  11  47
ATOM     47  O   UNL     1     106.344 125.034 141.074  0.00  0.00    +0.000 OA
ATOM     48  C   UNL     1     105.767 124.939 140.492  0.00  0.00    +0.000 C 
ENDBRANCH  11  47
TORSDOF 9
ENDMDL
