MODEL 1
REMARK VINA RESULT:      -9.4      0.000      0.000
REMARK  Name = 44259499
REMARK  6 active torsions:
REMARK  status: ('A' for Active; 'I' for Inactive)
REMARK    1  A    between atoms: O_2  and  C_18
REMARK    2  A    between atoms: O_2  and  C_21
REMARK    3  A    between atoms: O_11  and  C_33
REMARK    4  A    between atoms: O_12  and  C_34
REMARK    5  A    between atoms: C_19  and  C_20
REMARK    6  A    between atoms: C_22  and  C_25
REMARK                            x       y       z     vdW  Elec       q    Type
REMARK                         _______ _______ _______ _____ _____    ______ ____
ROOT
ATOM      1  O   UNL     1     113.523 126.777 136.837  0.00  0.00    +0.000 OA
ATOM      2  O   UNL     1     111.599 125.502 135.941  0.00  0.00    +0.000 OA
ATOM      3  O   UNL     1     112.227 124.252 136.294  0.00  0.00    +0.000 OA
ATOM      4  O   UNL     1     114.850 124.293 137.578  0.00  0.00    +0.000 OA
ATOM      5  C   UNL     1     112.239 126.751 136.208  0.00  0.00    +0.000 A 
ATOM      6  C   UNL     1     112.881 127.177 136.507  0.00  0.00    +0.000 A 
ATOM      7  C   UNL     1     112.241 125.927 136.240  0.00  0.00    +0.000 A 
ATOM      8  C   UNL     1     112.883 125.528 136.569  0.00  0.00    +0.000 A 
ATOM      9  C   UNL     1     113.524 125.953 136.867  0.00  0.00    +0.000 A 
ATOM     10  C   UNL     1     112.873 124.669 136.595  0.00  0.00    +0.000 A 
ATOM     11  C   UNL     1     114.199 125.549 137.213  0.00  0.00    +0.000 A 
ATOM     12  C   UNL     1     113.539 124.248 136.937  0.00  0.00    +0.000 A 
ATOM     13  C   UNL     1     114.207 124.690 137.248  0.00  0.00    +0.000 A 
ENDROOT
BRANCH   6  15
ATOM     14  O   UNL     1     112.873 130.474 136.379  0.00  0.00    +0.000 OA
ATOM     15  C   UNL     1     112.879 128.001 136.476  0.00  0.00    +0.000 A 
ATOM     16  C   UNL     1     113.045 128.387 135.765  0.00  0.00    +0.000 A 
ATOM     17  C   UNL     1     112.710 128.439 137.154  0.00  0.00    +0.000 A 
ATOM     18  C   UNL     1     112.709 129.264 137.121  0.00  0.00    +0.000 A 
ATOM     19  C   UNL     1     113.043 129.211 135.734  0.00  0.00    +0.000 A 
ATOM     20  C   UNL     1     112.875 129.650 136.412  0.00  0.00    +0.000 A 
BRANCH  18  21
ATOM     21  O   UNL     1     112.540 129.703 137.799  0.00  0.00    +0.000 OA
ATOM     22  C   UNL     1     112.774 129.424 138.540  0.00  0.00    +0.000 C 
ENDBRANCH  18  21
BRANCH  19  23
ATOM     23  O   UNL     1     113.210 129.597 135.023  0.00  0.00    +0.000 OA
ATOM     24  C   UNL     1     113.909 129.431 134.617  0.00  0.00    +0.000 C 
ENDBRANCH  19  23
ENDBRANCH   6  15
BRANCH   5  25
ATOM     25  O   UNL     1     111.597 127.151 135.879  0.00  0.00    +0.000 OA
BRANCH  25  33
ATOM     26  O   UNL     1     110.735 126.965 137.003  0.00  0.00    +0.000 OA
ATOM     27  O   UNL     1     108.780 126.865 135.489  0.00  0.00    +0.000 OA
ATOM     28  O   UNL     1     110.293 127.084 134.869  0.00  0.00    +0.000 OA
ATOM     29  O   UNL     1     108.570 126.713 137.117  0.00  0.00    +0.000 OA
ATOM     30  C   UNL     1     109.432 126.898 135.994  0.00  0.00    +0.000 C 
ATOM     31  C   UNL     1     110.189 127.008 135.684  0.00  0.00    +0.000 C 
ATOM     32  C   UNL     1     109.327 126.822 136.808  0.00  0.00    +0.000 C 
ATOM     33  C   UNL     1     110.841 127.041 136.189  0.00  0.00    +0.000 C 
ATOM     34  C   UNL     1     109.979 126.855 137.313  0.00  0.00    +0.000 C 
BRANCH  34  37
ATOM     35  O   UNL     1     109.870 126.031 138.475  0.00  0.00    +0.000 OA
ATOM     36  O   UNL     1     109.771 127.451 138.594  0.00  0.00    +0.000 OA
ATOM     37  C   UNL     1     109.873 126.779 138.127  0.00  0.00    +0.000 C 
ENDBRANCH  34  37
ENDBRANCH  25  33
ENDBRANCH   5  25
TORSDOF 6
ENDMDL
MODEL 2
REMARK VINA RESULT:      -9.3     10.218     12.939
REMARK  Name = 44259499
REMARK  6 active torsions:
REMARK  status: ('A' for Active; 'I' for Inactive)
REMARK    1  A    between atoms: O_2  and  C_18
REMARK    2  A    between atoms: O_2  and  C_21
REMARK    3  A    between atoms: O_11  and  C_33
REMARK    4  A    between atoms: O_12  and  C_34
REMARK    5  A    between atoms: C_19  and  C_20
REMARK    6  A    between atoms: C_22  and  C_25
REMARK                            x       y       z     vdW  Elec       q    Type
REMARK                         _______ _______ _______ _____ _____    ______ ____
ROOT
ATOM      1  O   UNL     1     105.358 124.806 148.353  0.00  0.00    +0.000 OA
ATOM      2  O   UNL     1     106.687 126.259 146.853  0.00  0.00    +0.000 OA
ATOM      3  O   UNL     1     107.917 125.802 147.453  0.00  0.00    +0.000 OA
ATOM      4  O   UNL     1     107.799 123.838 149.612  0.00  0.00    +0.000 OA
ATOM      5  C   UNL     1     105.421 125.767 147.297  0.00  0.00    +0.000 A 
ATOM      6  C   UNL     1     104.978 125.283 147.797  0.00  0.00    +0.000 A 
ATOM      7  C   UNL     1     106.244 125.775 147.353  0.00  0.00    +0.000 A 
ATOM      8  C   UNL     1     106.624 125.298 147.909  0.00  0.00    +0.000 A 
ATOM      9  C   UNL     1     106.181 124.814 148.408  0.00  0.00    +0.000 A 
ATOM     10  C   UNL     1     107.482 125.315 147.957  0.00  0.00    +0.000 A 
ATOM     11  C   UNL     1     106.564 124.313 148.992  0.00  0.00    +0.000 A 
ATOM     12  C   UNL     1     107.883 124.821 148.534  0.00  0.00    +0.000 A 
ATOM     13  C   UNL     1     107.422 124.316 149.055  0.00  0.00    +0.000 A 
ENDROOT
BRANCH   6  15
ATOM     14  O   UNL     1     101.686 125.252 147.570  0.00  0.00    +0.000 OA
ATOM     15  C   UNL     1     104.155 125.276 147.741  0.00  0.00    +0.000 A 
ATOM     16  C   UNL     1     103.775 124.670 147.327  0.00  0.00    +0.000 A 
ATOM     17  C   UNL     1     103.711 125.873 148.097  0.00  0.00    +0.000 A 
ATOM     18  C   UNL     1     102.888 125.865 148.040  0.00  0.00    +0.000 A 
ATOM     19  C   UNL     1     102.953 124.663 147.270  0.00  0.00    +0.000 A 
ATOM     20  C   UNL     1     102.509 125.261 147.627  0.00  0.00    +0.000 A 
BRANCH  18  21
ATOM     21  O   UNL     1     102.444 126.462 148.397  0.00  0.00    +0.000 OA
ATOM     22  C   UNL     1     102.727 126.836 149.077  0.00  0.00    +0.000 C 
ENDBRANCH  18  21
BRANCH  19  23
ATOM     23  O   UNL     1     102.573 124.058 146.856  0.00  0.00    +0.000 OA
ATOM     24  C   UNL     1     102.854 123.284 146.907  0.00  0.00    +0.000 C 
ENDBRANCH  19  23
ENDBRANCH   6  15
BRANCH   5  25
ATOM     25  O   UNL     1     105.041 126.244 146.741  0.00  0.00    +0.000 OA
BRANCH  25  33
ATOM     26  O   UNL     1     105.349 125.421 145.614  0.00  0.00    +0.000 OA
ATOM     27  O   UNL     1     105.517 127.438 144.188  0.00  0.00    +0.000 OA
ATOM     28  O   UNL     1     105.153 127.588 145.790  0.00  0.00    +0.000 OA
ATOM     29  O   UNL     1     105.769 125.944 143.537  0.00  0.00    +0.000 OA
ATOM     30  C   UNL     1     105.461 126.766 144.663  0.00  0.00    +0.000 C 
ATOM     31  C   UNL     1     105.279 126.841 145.465  0.00  0.00    +0.000 C 
ATOM     32  C   UNL     1     105.587 126.018 144.338  0.00  0.00    +0.000 C 
ATOM     33  C   UNL     1     105.223 126.169 145.940  0.00  0.00    +0.000 C 
ATOM     34  C   UNL     1     105.531 125.346 144.813  0.00  0.00    +0.000 C 
BRANCH  34  37
ATOM     35  O   UNL     1     105.027 124.180 144.159  0.00  0.00    +0.000 OA
ATOM     36  O   UNL     1     106.414 124.271 144.489  0.00  0.00    +0.000 OA
ATOM     37  C   UNL     1     105.657 124.599 144.487  0.00  0.00    +0.000 C 
ENDBRANCH  34  37
ENDBRANCH  25  33
ENDBRANCH   5  25
TORSDOF 6
ENDMDL
MODEL 3
REMARK VINA RESULT:      -9.3      1.660      3.463
REMARK  Name = 44259499
REMARK  6 active torsions:
REMARK  status: ('A' for Active; 'I' for Inactive)
REMARK    1  A    between atoms: O_2  and  C_18
REMARK    2  A    between atoms: O_2  and  C_21
REMARK    3  A    between atoms: O_11  and  C_33
REMARK    4  A    between atoms: O_12  and  C_34
REMARK    5  A    between atoms: C_19  and  C_20
REMARK    6  A    between atoms: C_22  and  C_25
REMARK                            x       y       z     vdW  Elec       q    Type
REMARK                         _______ _______ _______ _____ _____    ______ ____
ROOT
ATOM      1  O   UNL     1     113.026 128.412 138.246  0.00  0.00    +0.000 OA
ATOM      2  O   UNL     1     112.244 126.110 138.719  0.00  0.00    +0.000 OA
ATOM      3  O   UNL     1     112.660 126.221 140.096  0.00  0.00    +0.000 OA
ATOM      4  O   UNL     1     113.889 128.708 141.012  0.00  0.00    +0.000 OA
ATOM      5  C   UNL     1     112.425 127.193 137.803  0.00  0.00    +0.000 A 
ATOM      6  C   UNL     1     112.685 127.960 137.646  0.00  0.00    +0.000 A 
ATOM      7  C   UNL     1     112.505 126.878 138.561  0.00  0.00    +0.000 A 
ATOM      8  C   UNL     1     112.845 127.330 139.162  0.00  0.00    +0.000 A 
ATOM      9  C   UNL     1     113.105 128.096 139.005  0.00  0.00    +0.000 A 
ATOM     10  C   UNL     1     112.923 126.990 139.948  0.00  0.00    +0.000 A 
ATOM     11  C   UNL     1     113.461 128.577 139.621  0.00  0.00    +0.000 A 
ATOM     12  C   UNL     1     113.277 127.455 140.577  0.00  0.00    +0.000 A 
ATOM     13  C   UNL     1     113.548 128.254 140.413  0.00  0.00    +0.000 A 
ENDROOT
BRANCH   6  15
ATOM     14  O   UNL     1     112.361 129.219 134.613  0.00  0.00    +0.000 OA
ATOM     15  C   UNL     1     112.605 128.275 136.887  0.00  0.00    +0.000 A 
ATOM     16  C   UNL     1     111.867 128.539 136.627  0.00  0.00    +0.000 A 
ATOM     17  C   UNL     1     113.261 128.325 136.390  0.00  0.00    +0.000 A 
ATOM     18  C   UNL     1     113.179 128.640 135.631  0.00  0.00    +0.000 A 
ATOM     19  C   UNL     1     111.787 128.854 135.869  0.00  0.00    +0.000 A 
ATOM     20  C   UNL     1     112.443 128.904 135.371  0.00  0.00    +0.000 A 
BRANCH  18  21
ATOM     21  O   UNL     1     113.835 128.690 135.133  0.00  0.00    +0.000 OA
ATOM     22  C   UNL     1     114.573 128.894 135.442  0.00  0.00    +0.000 C 
ENDBRANCH  18  21
BRANCH  19  23
ATOM     23  O   UNL     1     111.050 129.119 135.608  0.00  0.00    +0.000 OA
ATOM     24  C   UNL     1     110.584 129.590 136.099  0.00  0.00    +0.000 C 
ENDBRANCH  19  23
ENDBRANCH   6  15
BRANCH   5  25
ATOM     25  O   UNL     1     112.084 126.741 137.202  0.00  0.00    +0.000 OA
BRANCH  25  33
ATOM     26  O   UNL     1     113.232 125.911 137.013  0.00  0.00    +0.000 OA
ATOM     27  O   UNL     1     111.764 124.033 136.346  0.00  0.00    +0.000 OA
ATOM     28  O   UNL     1     111.106 125.489 136.758  0.00  0.00    +0.000 OA
ATOM     29  O   UNL     1     113.401 123.830 136.380  0.00  0.00    +0.000 OA
ATOM     30  C   UNL     1     112.254 124.659 136.569  0.00  0.00    +0.000 C 
ATOM     31  C   UNL     1     111.924 125.388 136.774  0.00  0.00    +0.000 C 
ATOM     32  C   UNL     1     113.072 124.558 136.585  0.00  0.00    +0.000 C 
ATOM     33  C   UNL     1     112.414 126.014 136.997  0.00  0.00    +0.000 C 
ATOM     34  C   UNL     1     113.561 125.184 136.808  0.00  0.00    +0.000 C 
BRANCH  34  37
ATOM     35  O   UNL     1     114.838 125.316 136.180  0.00  0.00    +0.000 OA
ATOM     36  O   UNL     1     114.739 124.744 137.486  0.00  0.00    +0.000 OA
ATOM     37  C   UNL     1     114.379 125.081 136.824  0.00  0.00    +0.000 C 
ENDBRANCH  34  37
ENDBRANCH  25  33
ENDBRANCH   5  25
TORSDOF 6
ENDMDL
MODEL 4
REMARK VINA RESULT:      -9.2      1.854      4.454
REMARK  Name = 44259499
REMARK  6 active torsions:
REMARK  status: ('A' for Active; 'I' for Inactive)
REMARK    1  A    between atoms: O_2  and  C_18
REMARK    2  A    between atoms: O_2  and  C_21
REMARK    3  A    between atoms: O_11  and  C_33
REMARK    4  A    between atoms: O_12  and  C_34
REMARK    5  A    between atoms: C_19  and  C_20
REMARK    6  A    between atoms: C_22  and  C_25
REMARK                            x       y       z     vdW  Elec       q    Type
REMARK                         _______ _______ _______ _____ _____    ______ ____
ROOT
ATOM      1  O   UNL     1     113.304 127.335 136.443  0.00  0.00    +0.000 OA
ATOM      2  O   UNL     1     112.156 128.438 138.338  0.00  0.00    +0.000 OA
ATOM      3  O   UNL     1     112.614 129.734 137.899  0.00  0.00    +0.000 OA
ATOM      4  O   UNL     1     114.265 129.916 135.497  0.00  0.00    +0.000 OA
ATOM      5  C   UNL     1     112.496 127.251 137.619  0.00  0.00    +0.000 A 
ATOM      6  C   UNL     1     112.879 126.883 136.987  0.00  0.00    +0.000 A 
ATOM      7  C   UNL     1     112.539 128.070 137.706  0.00  0.00    +0.000 A 
ATOM      8  C   UNL     1     112.964 128.522 137.162  0.00  0.00    +0.000 A 
ATOM      9  C   UNL     1     113.346 128.154 136.531  0.00  0.00    +0.000 A 
ATOM     10  C   UNL     1     113.000 129.374 137.264  0.00  0.00    +0.000 A 
ATOM     11  C   UNL     1     113.791 128.613 135.957  0.00  0.00    +0.000 A 
ATOM     12  C   UNL     1     113.441 129.849 136.701  0.00  0.00    +0.000 A 
ATOM     13  C   UNL     1     113.840 129.467 136.042  0.00  0.00    +0.000 A 
ENDROOT
BRANCH   6  15
ATOM     14  O   UNL     1     112.705 123.606 136.638  0.00  0.00    +0.000 OA
ATOM     15  C   UNL     1     112.836 126.064 136.900  0.00  0.00    +0.000 A 
ATOM     16  C   UNL     1     112.150 125.717 136.600  0.00  0.00    +0.000 A 
ATOM     17  C   UNL     1     113.479 125.592 137.112  0.00  0.00    +0.000 A 
ATOM     18  C   UNL     1     113.435 124.773 137.025  0.00  0.00    +0.000 A 
ATOM     19  C   UNL     1     112.107 124.898 136.513  0.00  0.00    +0.000 A 
ATOM     20  C   UNL     1     112.749 124.426 136.726  0.00  0.00    +0.000 A 
BRANCH  18  21
ATOM     21  O   UNL     1     114.077 124.301 137.237  0.00  0.00    +0.000 OA
ATOM     22  C   UNL     1     114.840 124.616 137.236  0.00  0.00    +0.000 C 
ENDBRANCH  18  21
BRANCH  19  23
ATOM     23  O   UNL     1     111.421 124.550 136.213  0.00  0.00    +0.000 OA
ATOM     24  C   UNL     1     110.911 124.989 135.735  0.00  0.00    +0.000 C 
ENDBRANCH  19  23
ENDBRANCH   6  15
BRANCH   5  25
ATOM     25  O   UNL     1     112.071 126.800 138.163  0.00  0.00    +0.000 OA
BRANCH  25  33
ATOM     26  O   UNL     1     113.054 126.952 139.189  0.00  0.00    +0.000 OA
ATOM     27  O   UNL     1     111.307 126.626 140.912  0.00  0.00    +0.000 OA
ATOM     28  O   UNL     1     110.906 126.582 139.312  0.00  0.00    +0.000 OA
ATOM     29  O   UNL     1     112.872 126.887 141.363  0.00  0.00    +0.000 OA
ATOM     30  C   UNL     1     111.890 126.735 140.338  0.00  0.00    +0.000 C 
ATOM     31  C   UNL     1     111.689 126.713 139.537  0.00  0.00    +0.000 C 
ATOM     32  C   UNL     1     112.672 126.865 140.563  0.00  0.00    +0.000 C 
ATOM     33  C   UNL     1     112.271 126.821 138.963  0.00  0.00    +0.000 C 
ATOM     34  C   UNL     1     113.255 126.974 139.988  0.00  0.00    +0.000 C 
BRANCH  34  37
ATOM     35  O   UNL     1     114.271 127.849 140.481  0.00  0.00    +0.000 OA
ATOM     36  O   UNL     1     114.586 126.490 140.174  0.00  0.00    +0.000 OA
ATOM     37  C   UNL     1     114.037 127.104 140.214  0.00  0.00    +0.000 C 
ENDBRANCH  34  37
ENDBRANCH  25  33
ENDBRANCH   5  25
TORSDOF 6
ENDMDL
MODEL 5
REMARK VINA RESULT:      -9.2      1.303      3.925
REMARK  Name = 44259499
REMARK  6 active torsions:
REMARK  status: ('A' for Active; 'I' for Inactive)
REMARK    1  A    between atoms: O_2  and  C_18
REMARK    2  A    between atoms: O_2  and  C_21
REMARK    3  A    between atoms: O_11  and  C_33
REMARK    4  A    between atoms: O_12  and  C_34
REMARK    5  A    between atoms: C_19  and  C_20
REMARK    6  A    between atoms: C_22  and  C_25
REMARK                            x       y       z     vdW  Elec       q    Type
REMARK                         _______ _______ _______ _____ _____    ______ ____
ROOT
ATOM      1  O   UNL     1     113.002 127.559 135.954  0.00  0.00    +0.000 OA
ATOM      2  O   UNL     1     112.602 128.684 138.123  0.00  0.00    +0.000 OA
ATOM      3  O   UNL     1     113.373 129.829 137.703  0.00  0.00    +0.000 OA
ATOM      4  O   UNL     1     114.571 129.836 135.039  0.00  0.00    +0.000 OA
ATOM      5  C   UNL     1     112.418 127.561 137.259  0.00  0.00    +0.000 A 
ATOM      6  C   UNL     1     112.552 127.186 136.535  0.00  0.00    +0.000 A 
ATOM      7  C   UNL     1     112.736 128.309 137.399  0.00  0.00    +0.000 A 
ATOM      8  C   UNL     1     113.186 128.682 136.818  0.00  0.00    +0.000 A 
ATOM      9  C   UNL     1     113.319 128.308 136.096  0.00  0.00    +0.000 A 
ATOM     10  C   UNL     1     113.511 129.462 136.977  0.00  0.00    +0.000 A 
ATOM     11  C   UNL     1     113.787 128.685 135.482  0.00  0.00    +0.000 A 
ATOM     12  C   UNL     1     113.981 129.855 136.376  0.00  0.00    +0.000 A 
ATOM     13  C   UNL     1     114.120 129.465 135.623  0.00  0.00    +0.000 A 
ENDROOT
BRANCH   6  15
ATOM     14  O   UNL     1     111.283 124.191 135.974  0.00  0.00    +0.000 OA
ATOM     15  C   UNL     1     112.234 126.438 136.394  0.00  0.00    +0.000 A 
ATOM     16  C   UNL     1     112.596 125.769 136.717  0.00  0.00    +0.000 A 
ATOM     17  C   UNL     1     111.555 126.357 135.932  0.00  0.00    +0.000 A 
ATOM     18  C   UNL     1     111.239 125.608 135.792  0.00  0.00    +0.000 A 
ATOM     19  C   UNL     1     112.278 125.021 136.576  0.00  0.00    +0.000 A 
ATOM     20  C   UNL     1     111.600 124.940 136.114  0.00  0.00    +0.000 A 
BRANCH  18  21
ATOM     21  O   UNL     1     110.560 125.528 135.330  0.00  0.00    +0.000 OA
ATOM     22  C   UNL     1     110.432 126.036 134.692  0.00  0.00    +0.000 C 
ENDBRANCH  18  21
BRANCH  19  23
ATOM     23  O   UNL     1     112.640 124.352 136.898  0.00  0.00    +0.000 OA
ATOM     24  C   UNL     1     113.454 124.244 136.817  0.00  0.00    +0.000 C 
ENDBRANCH  19  23
ENDBRANCH   6  15
BRANCH   5  25
ATOM     25  O   UNL     1     111.967 127.187 137.840  0.00  0.00    +0.000 OA
BRANCH  25  33
ATOM     26  O   UNL     1     110.804 127.989 137.626  0.00  0.00    +0.000 OA
ATOM     27  O   UNL     1     110.214 127.771 140.020  0.00  0.00    +0.000 OA
ATOM     28  O   UNL     1     111.574 127.042 139.436  0.00  0.00    +0.000 OA
ATOM     29  O   UNL     1     109.247 128.644 139.008  0.00  0.00    +0.000 OA
ATOM     30  C   UNL     1     110.410 127.843 139.222  0.00  0.00    +0.000 C 
ATOM     31  C   UNL     1     111.091 127.479 138.929  0.00  0.00    +0.000 C 
ATOM     32  C   UNL     1     109.927 128.280 138.716  0.00  0.00    +0.000 C 
ATOM     33  C   UNL     1     111.288 127.551 138.132  0.00  0.00    +0.000 C 
ATOM     34  C   UNL     1     110.124 128.353 137.918  0.00  0.00    +0.000 C 
BRANCH  34  37
ATOM     35  O   UNL     1     109.744 129.605 137.344  0.00  0.00    +0.000 OA
ATOM     36  O   UNL     1     109.053 128.410 136.974  0.00  0.00    +0.000 OA
ATOM     37  C   UNL     1     109.641 128.789 137.412  0.00  0.00    +0.000 C 
ENDBRANCH  34  37
ENDBRANCH  25  33
ENDBRANCH   5  25
TORSDOF 6
ENDMDL
MODEL 6
REMARK VINA RESULT:      -9.1      1.804      4.531
REMARK  Name = 44259499
REMARK  6 active torsions:
REMARK  status: ('A' for Active; 'I' for Inactive)
REMARK    1  A    between atoms: O_2  and  C_18
REMARK    2  A    between atoms: O_2  and  C_21
REMARK    3  A    between atoms: O_11  and  C_33
REMARK    4  A    between atoms: O_12  and  C_34
REMARK    5  A    between atoms: C_19  and  C_20
REMARK    6  A    between atoms: C_22  and  C_25
REMARK                            x       y       z     vdW  Elec       q    Type
REMARK                         _______ _______ _______ _____ _____    ______ ____
ROOT
ATOM      1  O   UNL     1     111.813 128.226 138.231  0.00  0.00    +0.000 OA
ATOM      2  O   UNL     1     113.652 127.278 136.872  0.00  0.00    +0.000 OA
ATOM      3  O   UNL     1     113.455 128.280 135.853  0.00  0.00    +0.000 OA
ATOM      4  O   UNL     1     111.356 130.279 136.216  0.00  0.00    +0.000 OA
ATOM      5  C   UNL     1     112.841 127.250 138.048  0.00  0.00    +0.000 A 
ATOM      6  C   UNL     1     112.228 127.566 138.501  0.00  0.00    +0.000 A 
ATOM      7  C   UNL     1     113.039 127.594 137.325  0.00  0.00    +0.000 A 
ATOM      8  C   UNL     1     112.624 128.254 137.055  0.00  0.00    +0.000 A 
ATOM      9  C   UNL     1     112.011 128.569 137.507  0.00  0.00    +0.000 A 
ATOM     10  C   UNL     1     112.840 128.603 136.299  0.00  0.00    +0.000 A 
ATOM     11  C   UNL     1     111.571 129.256 137.237  0.00  0.00    +0.000 A 
ATOM     12  C   UNL     1     112.411 129.290 136.013  0.00  0.00    +0.000 A 
ATOM     13  C   UNL     1     111.772 129.619 136.484  0.00  0.00    +0.000 A 
ENDROOT
BRANCH   6  15
ATOM     14  O   UNL     1     111.439 126.190 141.395  0.00  0.00    +0.000 OA
ATOM     15  C   UNL     1     112.030 127.222 139.224  0.00  0.00    +0.000 A 
ATOM     16  C   UNL     1     112.494 127.369 139.891  0.00  0.00    +0.000 A 
ATOM     17  C   UNL     1     111.370 126.731 139.281  0.00  0.00    +0.000 A 
ATOM     18  C   UNL     1     111.173 126.387 140.005  0.00  0.00    +0.000 A 
ATOM     19  C   UNL     1     112.296 127.025 140.614  0.00  0.00    +0.000 A 
ATOM     20  C   UNL     1     111.636 126.534 140.671  0.00  0.00    +0.000 A 
BRANCH  18  21
ATOM     21  O   UNL     1     110.513 125.896 140.062  0.00  0.00    +0.000 OA
ATOM     22  C   UNL     1     109.838 126.058 139.614  0.00  0.00    +0.000 C 
ENDBRANCH  18  21
BRANCH  19  23
ATOM     23  O   UNL     1     112.760 127.172 141.281  0.00  0.00    +0.000 OA
ATOM     24  C   UNL     1     113.008 127.941 141.450  0.00  0.00    +0.000 C 
ENDBRANCH  19  23
ENDBRANCH   6  15
BRANCH   5  25
ATOM     25  O   UNL     1     113.256 126.590 138.319  0.00  0.00    +0.000 OA
BRANCH  25  33
ATOM     26  O   UNL     1     112.608 125.661 137.448  0.00  0.00    +0.000 OA
ATOM     27  O   UNL     1     114.684 124.319 137.334  0.00  0.00    +0.000 OA
ATOM     28  O   UNL     1     114.640 125.695 138.242  0.00  0.00    +0.000 OA
ATOM     29  O   UNL     1     113.344 123.837 136.502  0.00  0.00    +0.000 OA
ATOM     30  C   UNL     1     113.992 124.766 137.372  0.00  0.00    +0.000 C 
ATOM     31  C   UNL     1     113.970 125.455 137.827  0.00  0.00    +0.000 C 
ATOM     32  C   UNL     1     113.321 124.526 136.956  0.00  0.00    +0.000 C 
ATOM     33  C   UNL     1     113.278 125.902 137.865  0.00  0.00    +0.000 C 
ATOM     34  C   UNL     1     112.629 124.973 136.994  0.00  0.00    +0.000 C 
BRANCH  34  37
ATOM     35  O   UNL     1     111.847 124.977 135.798  0.00  0.00    +0.000 OA
ATOM     36  O   UNL     1     111.401 124.246 136.942  0.00  0.00    +0.000 OA
ATOM     37  C   UNL     1     111.959 124.732 136.578  0.00  0.00    +0.000 C 
ENDBRANCH  34  37
ENDBRANCH  25  33
ENDBRANCH   5  25
TORSDOF 6
ENDMDL
