MODEL 1
REMARK VINA RESULT:     -10.9      0.000      0.000
REMARK  Name = 74978145
REMARK  12 active torsions:
REMARK  status: ('A' for Active; 'I' for Inactive)
REMARK    1  A    between atoms: O_2  and  C_26
REMARK    2  A    between atoms: O_2  and  C_30
REMARK    3  A    between atoms: O_5  and  C_28
REMARK    4  A    between atoms: O_5  and  C_39
REMARK    5  A    between atoms: O_12  and  C_36
REMARK    6  A    between atoms: O_12  and  C_40
REMARK    7  A    between atoms: O_20  and  C_56
REMARK    8  A    between atoms: C_21  and  C_30
REMARK    9  A    between atoms: C_35  and  C_38
REMARK   10  A    between atoms: C_41  and  C_48
REMARK   11  A    between atoms: C_45  and  C_49
REMARK   12  A    between atoms: C_48  and  C_50
REMARK                            x       y       z     vdW  Elec       q    Type
REMARK                         _______ _______ _______ _____ _____    ______ ____
ROOT
ATOM      1  O   UNL     1     112.263 128.240 137.619  0.00  0.00    +0.000 OA
ATOM      2  O   UNL     1     110.368 128.132 139.207  0.00  0.00    +0.000 OA
ATOM      3  O   UNL     1     109.890 129.421 138.769  0.00  0.00    +0.000 OA
ATOM      4  C   UNL     1     111.541 127.547 138.638  0.00  0.00    +0.000 A 
ATOM      5  C   UNL     1     111.265 130.191 137.177  0.00  0.00    +0.000 A 
ATOM      6  C   UNL     1     111.826 129.540 137.141  0.00  0.00    +0.000 A 
ATOM      7  C   UNL     1     111.090 128.826 138.187  0.00  0.00    +0.000 A 
ATOM      8  C   UNL     1     111.721 128.862 137.657  0.00  0.00    +0.000 A 
ATOM      9  C   UNL     1     111.000 128.168 138.678  0.00  0.00    +0.000 A 
ATOM     10  C   UNL     1     112.173 127.583 138.109  0.00  0.00    +0.000 A 
ATOM     11  C   UNL     1     110.607 130.153 137.728  0.00  0.00    +0.000 A 
ATOM     12  C   UNL     1     110.519 129.466 138.237  0.00  0.00    +0.000 A 
ENDROOT
BRANCH  10  13
ATOM     13  C   UNL     1     112.714 126.963 138.070  0.00  0.00    +0.000 A 
ATOM     14  C   UNL     1     113.444 127.026 138.450  0.00  0.00    +0.000 A 
ATOM     15  C   UNL     1     112.526 126.278 137.651  0.00  0.00    +0.000 A 
ATOM     16  C   UNL     1     113.985 126.405 138.411  0.00  0.00    +0.000 A 
ATOM     17  C   UNL     1     113.068 125.656 137.612  0.00  0.00    +0.000 A 
ATOM     18  C   UNL     1     113.797 125.720 137.992  0.00  0.00    +0.000 A 
BRANCH  18  19
ATOM     19  O   UNL     1     114.339 125.098 137.953  0.00  0.00    +0.000 OA
ATOM     20  C   UNL     1     114.512 124.748 137.227  0.00  0.00    +0.000 C 
ENDBRANCH  18  19
ENDBRANCH  10  13
BRANCH   4  21
ATOM     21  O   UNL     1     111.451 126.891 139.129  0.00  0.00    +0.000 OA
BRANCH  21  30
ATOM     22  O   UNL     1     111.932 127.563 140.294  0.00  0.00    +0.000 OA
ATOM     23  O   UNL     1     111.478 127.262 142.408  0.00  0.00    +0.000 OA
ATOM     24  O   UNL     1     110.530 126.102 141.717  0.00  0.00    +0.000 OA
ATOM     25  O   UNL     1     110.516 125.916 140.077  0.00  0.00    +0.000 OA
ATOM     26  C   UNL     1     111.938 127.656 141.114  0.00  0.00    +0.000 C 
ATOM     27  C   UNL     1     111.471 127.169 141.588  0.00  0.00    +0.000 C 
ATOM     28  C   UNL     1     110.997 126.589 141.242  0.00  0.00    +0.000 C 
ATOM     29  C   UNL     1     110.990 126.496 140.423  0.00  0.00    +0.000 C 
ATOM     30  C   UNL     1     111.458 126.983 139.949  0.00  0.00    +0.000 C 
BRANCH  26  31
ATOM     31  C   UNL     1     112.412 128.235 141.460  0.00  0.00    +0.000 C 
BRANCH  31  32
ATOM     32  O   UNL     1     112.201 129.031 141.402  0.00  0.00    +0.000 OA
BRANCH  32  38
ATOM     33  O   UNL     1     113.466 129.507 140.940  0.00  0.00    +0.000 OA
ATOM     34  O   UNL     1     112.007 130.407 142.291  0.00  0.00    +0.000 OA
ATOM     35  O   UNL     1     113.176 131.572 142.274  0.00  0.00    +0.000 OA
ATOM     36  O   UNL     1     114.538 131.360 141.367  0.00  0.00    +0.000 OA
ATOM     37  C   UNL     1     112.689 130.301 141.837  0.00  0.00    +0.000 C 
ATOM     38  C   UNL     1     112.786 129.613 141.393  0.00  0.00    +0.000 C 
ATOM     39  C   UNL     1     113.273 130.883 141.829  0.00  0.00    +0.000 C 
ATOM     40  C   UNL     1     113.954 130.778 141.375  0.00  0.00    +0.000 C 
ATOM     41  C   UNL     1     114.051 130.089 140.931  0.00  0.00    +0.000 C 
ATOM     42  C   UNL     1     114.732 129.984 140.478  0.00  0.00    +0.000 C 
ENDBRANCH  32  38
ENDBRANCH  31  32
ENDBRANCH  26  31
ENDBRANCH  21  30
ENDBRANCH   4  21
BRANCH   5  43
ATOM     43  O   UNL     1     111.357 130.847 136.685  0.00  0.00    +0.000 OA
BRANCH  43  52
ATOM     44  O   UNL     1     110.174 130.790 135.886  0.00  0.00    +0.000 OA
ATOM     45  O   UNL     1     109.751 133.185 136.343  0.00  0.00    +0.000 OA
ATOM     46  O   UNL     1     108.709 132.330 135.392  0.00  0.00    +0.000 OA
ATOM     47  O   UNL     1     111.076 132.444 136.990  0.00  0.00    +0.000 OA
ATOM     48  C   UNL     1     109.892 132.387 136.191  0.00  0.00    +0.000 C 
ATOM     49  C   UNL     1     109.371 131.959 135.715  0.00  0.00    +0.000 C 
ATOM     50  C   UNL     1     110.554 132.016 136.514  0.00  0.00    +0.000 C 
ATOM     51  C   UNL     1     109.512 131.161 135.563  0.00  0.00    +0.000 C 
ATOM     52  C   UNL     1     110.695 131.217 136.362  0.00  0.00    +0.000 C 
BRANCH  51  54
ATOM     53  O   UNL     1     109.254 130.061 134.688  0.00  0.00    +0.000 OA
ATOM     54  C   UNL     1     108.991 130.733 135.087  0.00  0.00    +0.000 C 
ENDBRANCH  51  54
ENDBRANCH  43  52
ENDBRANCH   5  43
BRANCH   6  55
ATOM     55  C   UNL     1     112.460 129.568 136.614  0.00  0.00    +0.000 C 
BRANCH  55  56
ATOM     56  C   UNL     1     113.152 129.970 136.821  0.00  0.00    +0.000 C 
ATOM     57  C   UNL     1     113.793 129.981 136.302  0.00  0.00    +0.000 C 
ATOM     58  C   UNL     1     114.483 130.382 136.509  0.00  0.00    +0.000 C 
ATOM     59  C   UNL     1     113.743 129.592 135.576  0.00  0.00    +0.000 C 
ENDBRANCH  55  56
ENDBRANCH   6  55
TORSDOF 12
ENDMDL
MODEL 2
REMARK VINA RESULT:     -10.7      1.781      4.771
REMARK  Name = 74978145
REMARK  12 active torsions:
REMARK  status: ('A' for Active; 'I' for Inactive)
REMARK    1  A    between atoms: O_2  and  C_26
REMARK    2  A    between atoms: O_2  and  C_30
REMARK    3  A    between atoms: O_5  and  C_28
REMARK    4  A    between atoms: O_5  and  C_39
REMARK    5  A    between atoms: O_12  and  C_36
REMARK    6  A    between atoms: O_12  and  C_40
REMARK    7  A    between atoms: O_20  and  C_56
REMARK    8  A    between atoms: C_21  and  C_30
REMARK    9  A    between atoms: C_35  and  C_38
REMARK   10  A    between atoms: C_41  and  C_48
REMARK   11  A    between atoms: C_45  and  C_49
REMARK   12  A    between atoms: C_48  and  C_50
REMARK                            x       y       z     vdW  Elec       q    Type
REMARK                         _______ _______ _______ _____ _____    ______ ____
ROOT
ATOM      1  O   UNL     1     112.929 128.804 138.425  0.00  0.00    +0.000 OA
ATOM      2  O   UNL     1     110.878 128.441 139.762  0.00  0.00    +0.000 OA
ATOM      3  O   UNL     1     110.323 127.595 138.733  0.00  0.00    +0.000 OA
ATOM      4  C   UNL     1     112.167 129.039 139.610  0.00  0.00    +0.000 A 
ATOM      5  C   UNL     1     111.790 127.463 137.046  0.00  0.00    +0.000 A 
ATOM      6  C   UNL     1     112.417 127.961 137.358  0.00  0.00    +0.000 A 
ATOM      7  C   UNL     1     111.640 128.206 138.576  0.00  0.00    +0.000 A 
ATOM      8  C   UNL     1     112.324 128.326 138.130  0.00  0.00    +0.000 A 
ATOM      9  C   UNL     1     111.562 128.562 139.316  0.00  0.00    +0.000 A 
ATOM     10  C   UNL     1     112.851 129.160 139.164  0.00  0.00    +0.000 A 
ATOM     11  C   UNL     1     111.078 127.337 137.510  0.00  0.00    +0.000 A 
ATOM     12  C   UNL     1     111.003 127.711 138.280  0.00  0.00    +0.000 A 
ENDROOT
BRANCH  10  13
ATOM     13  C   UNL     1     113.455 129.637 139.458  0.00  0.00    +0.000 A 
ATOM     14  C   UNL     1     113.937 129.363 140.070  0.00  0.00    +0.000 A 
ATOM     15  C   UNL     1     113.579 130.388 139.141  0.00  0.00    +0.000 A 
ATOM     16  C   UNL     1     114.542 129.840 140.364  0.00  0.00    +0.000 A 
ATOM     17  C   UNL     1     114.185 130.866 139.436  0.00  0.00    +0.000 A 
ATOM     18  C   UNL     1     114.666 130.591 140.047  0.00  0.00    +0.000 A 
BRANCH  18  19
ATOM     19  O   UNL     1     115.271 131.069 140.341  0.00  0.00    +0.000 OA
ATOM     20  C   UNL     1     115.254 131.318 141.128  0.00  0.00    +0.000 C 
ENDBRANCH  18  19
ENDBRANCH  10  13
BRANCH   4  21
ATOM     21  O   UNL     1     112.088 129.395 140.350  0.00  0.00    +0.000 OA
BRANCH  21  30
ATOM     22  O   UNL     1     111.118 130.332 139.879  0.00  0.00    +0.000 OA
ATOM     23  O   UNL     1     109.563 131.435 140.941  0.00  0.00    +0.000 OA
ATOM     24  O   UNL     1     110.240 130.581 142.179  0.00  0.00    +0.000 OA
ATOM     25  O   UNL     1     111.503 129.561 141.884  0.00  0.00    +0.000 OA
ATOM     26  C   UNL     1     110.487 130.842 140.026  0.00  0.00    +0.000 C 
ATOM     27  C   UNL     1     110.194 130.925 140.793  0.00  0.00    +0.000 C 
ATOM     28  C   UNL     1     110.533 130.497 141.413  0.00  0.00    +0.000 C 
ATOM     29  C   UNL     1     111.165 129.987 141.265  0.00  0.00    +0.000 C 
ATOM     30  C   UNL     1     111.457 129.905 140.497  0.00  0.00    +0.000 C 
BRANCH  26  31
ATOM     31  C   UNL     1     110.148 131.269 139.408  0.00  0.00    +0.000 C 
BRANCH  31  32
ATOM     32  O   UNL     1     110.614 131.773 138.949  0.00  0.00    +0.000 OA
BRANCH  32  38
ATOM     33  O   UNL     1     110.289 131.265 137.654  0.00  0.00    +0.000 OA
ATOM     34  O   UNL     1     110.498 133.315 138.374  0.00  0.00    +0.000 OA
ATOM     35  O   UNL     1     110.115 133.578 136.790  0.00  0.00    +0.000 OA
ATOM     36  O   UNL     1     109.849 132.299 135.782  0.00  0.00    +0.000 OA
ATOM     37  C   UNL     1     110.364 132.674 137.870  0.00  0.00    +0.000 C 
ATOM     38  C   UNL     1     110.422 131.903 138.157  0.00  0.00    +0.000 C 
ATOM     39  C   UNL     1     110.173 132.807 137.078  0.00  0.00    +0.000 C 
ATOM     40  C   UNL     1     110.040 132.166 136.574  0.00  0.00    +0.000 C 
ATOM     41  C   UNL     1     110.098 131.395 136.862  0.00  0.00    +0.000 C 
ATOM     42  C   UNL     1     109.965 130.757 136.358  0.00  0.00    +0.000 C 
ENDBRANCH  32  38
ENDBRANCH  31  32
ENDBRANCH  26  31
ENDBRANCH  21  30
ENDBRANCH   4  21
BRANCH   5  43
ATOM     43  O   UNL     1     111.871 127.108 136.306  0.00  0.00    +0.000 OA
BRANCH  43  52
ATOM     44  O   UNL     1     112.117 125.745 136.659  0.00  0.00    +0.000 OA
ATOM     45  O   UNL     1     110.396 125.015 135.038  0.00  0.00    +0.000 OA
ATOM     46  O   UNL     1     111.215 123.895 135.931  0.00  0.00    +0.000 OA
ATOM     47  O   UNL     1     110.724 126.621 135.225  0.00  0.00    +0.000 OA
ATOM     48  C   UNL     1     110.970 125.258 135.578  0.00  0.00    +0.000 C 
ATOM     49  C   UNL     1     111.379 124.699 136.025  0.00  0.00    +0.000 C 
ATOM     50  C   UNL     1     111.133 126.061 135.671  0.00  0.00    +0.000 C 
ATOM     51  C   UNL     1     111.953 124.942 136.565  0.00  0.00    +0.000 C 
ATOM     52  C   UNL     1     111.708 126.305 136.212  0.00  0.00    +0.000 C 
BRANCH  51  54
ATOM     53  O   UNL     1     113.154 124.510 137.206  0.00  0.00    +0.000 OA
ATOM     54  C   UNL     1     112.363 124.382 137.012  0.00  0.00    +0.000 C 
ENDBRANCH  51  54
ENDBRANCH  43  52
ENDBRANCH   5  43
BRANCH   6  55
ATOM     55  C   UNL     1     113.104 128.087 136.919  0.00  0.00    +0.000 C 
BRANCH  55  56
ATOM     56  C   UNL     1     113.126 128.682 136.347  0.00  0.00    +0.000 C 
ATOM     57  C   UNL     1     113.804 128.789 135.889  0.00  0.00    +0.000 C 
ATOM     58  C   UNL     1     113.825 129.384 135.318  0.00  0.00    +0.000 C 
ATOM     59  C   UNL     1     114.459 128.302 136.002  0.00  0.00    +0.000 C 
ENDBRANCH  55  56
ENDBRANCH   6  55
TORSDOF 12
ENDMDL
MODEL 3
REMARK VINA RESULT:     -10.7      1.649      4.510
REMARK  Name = 74978145
REMARK  12 active torsions:
REMARK  status: ('A' for Active; 'I' for Inactive)
REMARK    1  A    between atoms: O_2  and  C_26
REMARK    2  A    between atoms: O_2  and  C_30
REMARK    3  A    between atoms: O_5  and  C_28
REMARK    4  A    between atoms: O_5  and  C_39
REMARK    5  A    between atoms: O_12  and  C_36
REMARK    6  A    between atoms: O_12  and  C_40
REMARK    7  A    between atoms: O_20  and  C_56
REMARK    8  A    between atoms: C_21  and  C_30
REMARK    9  A    between atoms: C_35  and  C_38
REMARK   10  A    between atoms: C_41  and  C_48
REMARK   11  A    between atoms: C_45  and  C_49
REMARK   12  A    between atoms: C_48  and  C_50
REMARK                            x       y       z     vdW  Elec       q    Type
REMARK                         _______ _______ _______ _____ _____    ______ ____
ROOT
ATOM      1  O   UNL     1     111.206 128.634 138.512  0.00  0.00    +0.000 OA
ATOM      2  O   UNL     1     110.866 127.276 140.552  0.00  0.00    +0.000 OA
ATOM      3  O   UNL     1     111.748 126.250 140.050  0.00  0.00    +0.000 OA
ATOM      4  C   UNL     1     110.598 128.456 139.792  0.00  0.00    +0.000 A 
ATOM      5  C   UNL     1     112.502 126.877 138.037  0.00  0.00    +0.000 A 
ATOM      6  C   UNL     1     112.102 127.633 137.959  0.00  0.00    +0.000 A 
ATOM      7  C   UNL     1     111.475 127.455 139.271  0.00  0.00    +0.000 A 
ATOM      8  C   UNL     1     111.588 127.907 138.591  0.00  0.00    +0.000 A 
ATOM      9  C   UNL     1     110.979 127.729 139.872  0.00  0.00    +0.000 A 
ATOM     10  C   UNL     1     110.711 128.908 139.111  0.00  0.00    +0.000 A 
ATOM     11  C   UNL     1     112.384 126.405 138.745  0.00  0.00    +0.000 A 
ATOM     12  C   UNL     1     111.867 126.696 139.367  0.00  0.00    +0.000 A 
ENDROOT
BRANCH  10  13
ATOM     13  C   UNL     1     110.330 129.635 139.031  0.00  0.00    +0.000 A 
ATOM     14  C   UNL     1     109.527 129.661 138.840  0.00  0.00    +0.000 A 
ATOM     15  C   UNL     1     110.750 130.336 139.143  0.00  0.00    +0.000 A 
ATOM     16  C   UNL     1     109.146 130.388 138.760  0.00  0.00    +0.000 A 
ATOM     17  C   UNL     1     110.368 131.064 139.063  0.00  0.00    +0.000 A 
ATOM     18  C   UNL     1     109.566 131.089 138.872  0.00  0.00    +0.000 A 
BRANCH  18  19
ATOM     19  O   UNL     1     109.184 131.816 138.792  0.00  0.00    +0.000 OA
ATOM     20  C   UNL     1     109.101 132.158 138.046  0.00  0.00    +0.000 C 
ENDBRANCH  18  19
ENDBRANCH  10  13
BRANCH   4  21
ATOM     21  O   UNL     1     110.102 128.729 140.392  0.00  0.00    +0.000 OA
BRANCH  21  30
ATOM     22  O   UNL     1     111.186 129.055 141.263  0.00  0.00    +0.000 OA
ATOM     23  O   UNL     1     111.287 129.164 143.441  0.00  0.00    +0.000 OA
ATOM     24  O   UNL     1     109.710 128.730 143.223  0.00  0.00    +0.000 OA
ATOM     25  O   UNL     1     109.118 128.513 141.698  0.00  0.00    +0.000 OA
ATOM     26  C   UNL     1     111.483 129.163 142.025  0.00  0.00    +0.000 C 
ATOM     27  C   UNL     1     110.991 129.055 142.679  0.00  0.00    +0.000 C 
ATOM     28  C   UNL     1     110.202 128.838 142.569  0.00  0.00    +0.000 C 
ATOM     29  C   UNL     1     109.906 128.729 141.807  0.00  0.00    +0.000 C 
ATOM     30  C   UNL     1     110.399 128.838 141.154  0.00  0.00    +0.000 C 
BRANCH  26  31
ATOM     31  C   UNL     1     112.271 129.380 142.135  0.00  0.00    +0.000 C 
BRANCH  31  32
ATOM     32  O   UNL     1     112.544 130.104 141.848  0.00  0.00    +0.000 OA
BRANCH  32  38
ATOM     33  O   UNL     1     113.633 129.492 141.154  0.00  0.00    +0.000 OA
ATOM     34  O   UNL     1     113.363 131.536 141.871  0.00  0.00    +0.000 OA
ATOM     35  O   UNL     1     114.862 131.640 141.190  0.00  0.00    +0.000 OA
ATOM     36  O   UNL     1     115.542 130.312 140.484  0.00  0.00    +0.000 OA
ATOM     37  C   UNL     1     113.703 130.871 141.519  0.00  0.00    +0.000 C 
ATOM     38  C   UNL     1     113.294 130.155 141.507  0.00  0.00    +0.000 C 
ATOM     39  C   UNL     1     114.453 130.924 141.178  0.00  0.00    +0.000 C 
ATOM     40  C   UNL     1     114.793 130.259 140.825  0.00  0.00    +0.000 C 
ATOM     41  C   UNL     1     114.383 129.543 140.813  0.00  0.00    +0.000 C 
ATOM     42  C   UNL     1     114.722 128.880 140.461  0.00  0.00    +0.000 C 
ENDBRANCH  32  38
ENDBRANCH  31  32
ENDBRANCH  26  31
ENDBRANCH  21  30
ENDBRANCH   4  21
BRANCH   5  43
ATOM     43  O   UNL     1     112.997 126.605 137.435  0.00  0.00    +0.000 OA
BRANCH  43  52
ATOM     44  O   UNL     1     112.259 125.504 136.901  0.00  0.00    +0.000 OA
ATOM     45  O   UNL     1     114.271 124.073 137.074  0.00  0.00    +0.000 OA
ATOM     46  O   UNL     1     112.863 123.449 136.482  0.00  0.00    +0.000 OA
ATOM     47  O   UNL     1     114.339 125.651 137.551  0.00  0.00    +0.000 OA
ATOM     48  C   UNL     1     113.600 124.550 137.016  0.00  0.00    +0.000 C 
ATOM     49  C   UNL     1     112.897 124.238 136.720  0.00  0.00    +0.000 C 
ATOM     50  C   UNL     1     113.635 125.339 137.255  0.00  0.00    +0.000 C 
ATOM     51  C   UNL     1     112.226 124.715 136.662  0.00  0.00    +0.000 C 
ATOM     52  C   UNL     1     112.963 125.816 137.197  0.00  0.00    +0.000 C 
BRANCH  51  54
ATOM     53  O   UNL     1     111.045 124.860 135.871  0.00  0.00    +0.000 OA
ATOM     54  C   UNL     1     111.522 124.403 136.366  0.00  0.00    +0.000 C 
ENDBRANCH  51  54
ENDBRANCH  43  52
ENDBRANCH   5  43
BRANCH   6  55
ATOM     55  C   UNL     1     112.210 128.092 137.283  0.00  0.00    +0.000 C 
BRANCH  55  56
ATOM     56  C   UNL     1     112.866 128.590 137.221  0.00  0.00    +0.000 C 
ATOM     57  C   UNL     1     112.966 129.058 136.549  0.00  0.00    +0.000 C 
ATOM     58  C   UNL     1     113.622 129.555 136.488  0.00  0.00    +0.000 C 
ATOM     59  C   UNL     1     112.411 129.030 135.940  0.00  0.00    +0.000 C 
ENDBRANCH  55  56
ENDBRANCH   6  55
TORSDOF 12
ENDMDL
MODEL 4
REMARK VINA RESULT:     -10.6      1.757      5.098
REMARK  Name = 74978145
REMARK  12 active torsions:
REMARK  status: ('A' for Active; 'I' for Inactive)
REMARK    1  A    between atoms: O_2  and  C_26
REMARK    2  A    between atoms: O_2  and  C_30
REMARK    3  A    between atoms: O_5  and  C_28
REMARK    4  A    between atoms: O_5  and  C_39
REMARK    5  A    between atoms: O_12  and  C_36
REMARK    6  A    between atoms: O_12  and  C_40
REMARK    7  A    between atoms: O_20  and  C_56
REMARK    8  A    between atoms: C_21  and  C_30
REMARK    9  A    between atoms: C_35  and  C_38
REMARK   10  A    between atoms: C_41  and  C_48
REMARK   11  A    between atoms: C_45  and  C_49
REMARK   12  A    between atoms: C_48  and  C_50
REMARK                            x       y       z     vdW  Elec       q    Type
REMARK                         _______ _______ _______ _____ _____    ______ ____
ROOT
ATOM      1  O   UNL     1     111.949 128.254 138.784  0.00  0.00    +0.000 OA
ATOM      2  O   UNL     1     109.543 127.805 138.416  0.00  0.00    +0.000 OA
ATOM      3  O   UNL     1     109.272 127.948 139.827  0.00  0.00    +0.000 OA
ATOM      4  C   UNL     1     110.867 127.956 137.900  0.00  0.00    +0.000 A 
ATOM      5  C   UNL     1     111.193 128.409 140.882  0.00  0.00    +0.000 A 
ATOM      6  C   UNL     1     111.732 128.409 140.212  0.00  0.00    +0.000 A 
ATOM      7  C   UNL     1     110.625 128.103 139.301  0.00  0.00    +0.000 A 
ATOM      8  C   UNL     1     111.427 128.253 139.424  0.00  0.00    +0.000 A 
ATOM      9  C   UNL     1     110.345 127.954 138.539  0.00  0.00    +0.000 A 
ATOM     10  C   UNL     1     111.669 128.106 138.023  0.00  0.00    +0.000 A 
ATOM     11  C   UNL     1     110.358 128.253 140.754  0.00  0.00    +0.000 A 
ATOM     12  C   UNL     1     110.072 128.099 139.958  0.00  0.00    +0.000 A 
ENDROOT
BRANCH  10  13
ATOM     13  C   UNL     1     112.190 128.107 137.384  0.00  0.00    +0.000 A 
ATOM     14  C   UNL     1     112.421 127.395 137.038  0.00  0.00    +0.000 A 
ATOM     15  C   UNL     1     112.481 128.821 137.091  0.00  0.00    +0.000 A 
ATOM     16  C   UNL     1     112.942 127.396 136.399  0.00  0.00    +0.000 A 
ATOM     17  C   UNL     1     113.003 128.823 136.452  0.00  0.00    +0.000 A 
ATOM     18  C   UNL     1     113.233 128.110 136.106  0.00  0.00    +0.000 A 
BRANCH  18  19
ATOM     19  O   UNL     1     113.755 128.112 135.466  0.00  0.00    +0.000 OA
ATOM     20  C   UNL     1     114.312 128.716 135.391  0.00  0.00    +0.000 C 
ENDBRANCH  18  19
ENDBRANCH  10  13
BRANCH   4  21
ATOM     21  O   UNL     1     110.586 127.807 137.139  0.00  0.00    +0.000 OA
BRANCH  21  30
ATOM     22  O   UNL     1     110.033 129.105 136.917  0.00  0.00    +0.000 OA
ATOM     23  O   UNL     1     108.239 129.729 135.840  0.00  0.00    +0.000 OA
ATOM     24  O   UNL     1     108.173 128.093 135.635  0.00  0.00    +0.000 OA
ATOM     25  O   UNL     1     109.346 127.133 136.285  0.00  0.00    +0.000 OA
ATOM     26  C   UNL     1     109.446 129.586 136.592  0.00  0.00    +0.000 C 
ATOM     27  C   UNL     1     108.826 129.249 136.165  0.00  0.00    +0.000 C 
ATOM     28  C   UNL     1     108.793 128.430 136.062  0.00  0.00    +0.000 C 
ATOM     29  C   UNL     1     109.380 127.950 136.387  0.00  0.00    +0.000 C 
ATOM     30  C   UNL     1     109.999 128.288 136.814  0.00  0.00    +0.000 C 
BRANCH  26  31
ATOM     31  C   UNL     1     109.479 130.404 136.693  0.00  0.00    +0.000 C 
BRANCH  31  32
ATOM     32  O   UNL     1     109.597 130.722 137.445  0.00  0.00    +0.000 OA
BRANCH  32  38
ATOM     33  O   UNL     1     109.977 131.970 136.862  0.00  0.00    +0.000 OA
ATOM     34  O   UNL     1     109.682 131.399 138.948  0.00  0.00    +0.000 OA
ATOM     35  O   UNL     1     110.104 132.985 139.115  0.00  0.00    +0.000 OA
ATOM     36  O   UNL     1     110.441 133.895 137.780  0.00  0.00    +0.000 OA
ATOM     37  C   UNL     1     109.851 131.854 138.279  0.00  0.00    +0.000 C 
ATOM     38  C   UNL     1     109.808 131.515 137.528  0.00  0.00    +0.000 C 
ATOM     39  C   UNL     1     110.062 132.647 138.364  0.00  0.00    +0.000 C 
ATOM     40  C   UNL     1     110.231 133.102 137.696  0.00  0.00    +0.000 C 
ATOM     41  C   UNL     1     110.188 132.763 136.944  0.00  0.00    +0.000 C 
ATOM     42  C   UNL     1     110.357 133.217 136.278  0.00  0.00    +0.000 C 
ENDBRANCH  32  38
ENDBRANCH  31  32
ENDBRANCH  26  31
ENDBRANCH  21  30
ENDBRANCH   4  21
BRANCH   5  43
ATOM     43  O   UNL     1     111.476 128.557 141.642  0.00  0.00    +0.000 OA
BRANCH  43  52
ATOM     44  O   UNL     1     110.949 129.861 141.900  0.00  0.00    +0.000 OA
ATOM     45  O   UNL     1     110.119 129.088 144.100  0.00  0.00    +0.000 OA
ATOM     46  O   UNL     1     109.869 130.648 143.626  0.00  0.00    +0.000 OA
ATOM     47  O   UNL     1     110.923 128.042 143.109  0.00  0.00    +0.000 OA
ATOM     48  C   UNL     1     110.396 129.346 143.367  0.00  0.00    +0.000 C 
ATOM     49  C   UNL     1     110.271 130.126 143.130  0.00  0.00    +0.000 C 
ATOM     50  C   UNL     1     110.797 128.823 142.872  0.00  0.00    +0.000 C 
ATOM     51  C   UNL     1     110.547 130.383 142.396  0.00  0.00    +0.000 C 
ATOM     52  C   UNL     1     111.074 129.080 142.138  0.00  0.00    +0.000 C 
BRANCH  51  54
ATOM     53  O   UNL     1     111.054 131.615 141.880  0.00  0.00    +0.000 OA
ATOM     54  C   UNL     1     110.422 131.163 142.159  0.00  0.00    +0.000 C 
ENDBRANCH  51  54
ENDBRANCH  43  52
ENDBRANCH   5  43
BRANCH   6  55
ATOM     55  C   UNL     1     112.535 128.558 140.325  0.00  0.00    +0.000 C 
BRANCH  55  56
ATOM     56  C   UNL     1     113.047 127.939 140.514  0.00  0.00    +0.000 C 
ATOM     57  C   UNL     1     113.853 128.086 140.617  0.00  0.00    +0.000 C 
ATOM     58  C   UNL     1     114.364 127.467 140.805  0.00  0.00    +0.000 C 
ATOM     59  C   UNL     1     114.146 128.852 140.530  0.00  0.00    +0.000 C 
ENDBRANCH  55  56
ENDBRANCH   6  55
TORSDOF 12
ENDMDL
MODEL 5
REMARK VINA RESULT:     -10.6      1.891      2.729
REMARK  Name = 74978145
REMARK  12 active torsions:
REMARK  status: ('A' for Active; 'I' for Inactive)
REMARK    1  A    between atoms: O_2  and  C_26
REMARK    2  A    between atoms: O_2  and  C_30
REMARK    3  A    between atoms: O_5  and  C_28
REMARK    4  A    between atoms: O_5  and  C_39
REMARK    5  A    between atoms: O_12  and  C_36
REMARK    6  A    between atoms: O_12  and  C_40
REMARK    7  A    between atoms: O_20  and  C_56
REMARK    8  A    between atoms: C_21  and  C_30
REMARK    9  A    between atoms: C_35  and  C_38
REMARK   10  A    between atoms: C_41  and  C_48
REMARK   11  A    between atoms: C_45  and  C_49
REMARK   12  A    between atoms: C_48  and  C_50
REMARK                            x       y       z     vdW  Elec       q    Type
REMARK                         _______ _______ _______ _____ _____    ______ ____
ROOT
ATOM      1  O   UNL     1     111.700 128.252 138.025  0.00  0.00    +0.000 OA
ATOM      2  O   UNL     1     109.640 126.903 138.270  0.00  0.00    +0.000 OA
ATOM      3  O   UNL     1     108.952 127.727 137.307  0.00  0.00    +0.000 OA
ATOM      4  C   UNL     1     111.000 127.162 138.626  0.00  0.00    +0.000 A 
ATOM      5  C   UNL     1     110.357 129.317 136.591  0.00  0.00    +0.000 A 
ATOM      6  C   UNL     1     111.055 129.113 137.050  0.00  0.00    +0.000 A 
ATOM      7  C   UNL     1     110.341 127.994 137.669  0.00  0.00    +0.000 A 
ATOM      8  C   UNL     1     111.028 128.444 137.587  0.00  0.00    +0.000 A 
ATOM      9  C   UNL     1     110.327 127.352 138.189  0.00  0.00    +0.000 A 
ATOM     10  C   UNL     1     111.687 127.612 138.544  0.00  0.00    +0.000 A 
ATOM     11  C   UNL     1     109.642 128.849 136.676  0.00  0.00    +0.000 A 
ATOM     12  C   UNL     1     109.634 128.182 137.219  0.00  0.00    +0.000 A 
ENDROOT
BRANCH  10  13
ATOM     13  C   UNL     1     112.359 127.421 138.982  0.00  0.00    +0.000 A 
ATOM     14  C   UNL     1     112.575 127.883 139.630  0.00  0.00    +0.000 A 
ATOM     15  C   UNL     1     112.815 126.767 138.772  0.00  0.00    +0.000 A 
ATOM     16  C   UNL     1     113.248 127.692 140.067  0.00  0.00    +0.000 A 
ATOM     17  C   UNL     1     113.489 126.575 139.209  0.00  0.00    +0.000 A 
ATOM     18  C   UNL     1     113.704 127.038 139.857  0.00  0.00    +0.000 A 
BRANCH  18  19
ATOM     19  O   UNL     1     114.377 126.847 140.295  0.00  0.00    +0.000 OA
ATOM     20  C   UNL     1     114.550 127.260 140.987  0.00  0.00    +0.000 C 
ENDBRANCH  18  19
ENDBRANCH  10  13
BRANCH   4  21
ATOM     21  O   UNL     1     110.985 126.521 139.145  0.00  0.00    +0.000 OA
BRANCH  21  30
ATOM     22  O   UNL     1     110.222 127.208 140.138  0.00  0.00    +0.000 OA
ATOM     23  O   UNL     1     108.820 126.460 141.634  0.00  0.00    +0.000 OA
ATOM     24  O   UNL     1     109.263 125.055 140.892  0.00  0.00    +0.000 OA
ATOM     25  O   UNL     1     110.346 125.085 139.647  0.00  0.00    +0.000 OA
ATOM     26  C   UNL     1     109.681 127.193 140.760  0.00  0.00    +0.000 C 
ATOM     27  C   UNL     1     109.361 126.476 141.012  0.00  0.00    +0.000 C 
ATOM     28  C   UNL     1     109.583 125.772 140.640  0.00  0.00    +0.000 C 
ATOM     29  C   UNL     1     110.124 125.788 140.018  0.00  0.00    +0.000 C 
ATOM     30  C   UNL     1     110.444 126.506 139.767  0.00  0.00    +0.000 C 
BRANCH  26  31
ATOM     31  C   UNL     1     109.459 127.895 141.132  0.00  0.00    +0.000 C 
BRANCH  31  32
ATOM     32  O   UNL     1     109.248 128.553 140.680  0.00  0.00    +0.000 OA
BRANCH  32  38
ATOM     33  O   UNL     1     109.420 129.463 141.768  0.00  0.00    +0.000 OA
ATOM     34  O   UNL     1     108.160 129.583 139.989  0.00  0.00    +0.000 OA
ATOM     35  O   UNL     1     107.788 131.009 140.732  0.00  0.00    +0.000 OA
ATOM     36  O   UNL     1     108.504 131.404 142.165  0.00  0.00    +0.000 OA
ATOM     37  C   UNL     1     108.519 129.781 140.707  0.00  0.00    +0.000 C 
ATOM     38  C   UNL     1     109.062 129.265 141.052  0.00  0.00    +0.000 C 
ATOM     39  C   UNL     1     108.332 130.494 141.077  0.00  0.00    +0.000 C 
ATOM     40  C   UNL     1     108.690 130.691 141.795  0.00  0.00    +0.000 C 
ATOM     41  C   UNL     1     109.234 130.176 142.140  0.00  0.00    +0.000 C 
ATOM     42  C   UNL     1     109.592 130.373 142.856  0.00  0.00    +0.000 C 
ENDBRANCH  32  38
ENDBRANCH  31  32
ENDBRANCH  26  31
ENDBRANCH  21  30
ENDBRANCH   4  21
BRANCH   5  43
ATOM     43  O   UNL     1     110.374 129.959 136.072  0.00  0.00    +0.000 OA
BRANCH  43  52
ATOM     44  O   UNL     1     109.509 130.878 136.742  0.00  0.00    +0.000 OA
ATOM     45  O   UNL     1     108.325 131.313 134.613  0.00  0.00    +0.000 OA
ATOM     46  O   UNL     1     107.854 132.087 135.991  0.00  0.00    +0.000 OA
ATOM     47  O   UNL     1     109.585 130.248 134.653  0.00  0.00    +0.000 OA
ATOM     48  C   UNL     1     108.720 131.168 135.322  0.00  0.00    +0.000 C 
ATOM     49  C   UNL     1     108.484 131.555 136.012  0.00  0.00    +0.000 C 
ATOM     50  C   UNL     1     109.349 130.636 135.342  0.00  0.00    +0.000 C 
ATOM     51  C   UNL     1     108.879 131.410 136.721  0.00  0.00    +0.000 C 
ATOM     52  C   UNL     1     109.745 130.491 136.053  0.00  0.00    +0.000 C 
BRANCH  51  54
ATOM     53  O   UNL     1     109.211 132.118 137.917  0.00  0.00    +0.000 OA
ATOM     54  C   UNL     1     108.644 131.797 137.411  0.00  0.00    +0.000 C 
ENDBRANCH  51  54
ENDBRANCH  43  52
ENDBRANCH   5  43
BRANCH   6  55
ATOM     55  C   UNL     1     111.746 129.558 136.974  0.00  0.00    +0.000 C 
BRANCH  55  56
ATOM     56  C   UNL     1     112.287 129.382 136.376  0.00  0.00    +0.000 C 
ATOM     57  C   UNL     1     112.992 129.807 136.320  0.00  0.00    +0.000 C 
ATOM     58  C   UNL     1     113.533 129.630 135.722  0.00  0.00    +0.000 C 
ATOM     59  C   UNL     1     113.156 130.407 136.861  0.00  0.00    +0.000 C 
ENDBRANCH  55  56
ENDBRANCH   6  55
TORSDOF 12
ENDMDL
MODEL 6
REMARK VINA RESULT:     -10.6      1.603      3.768
REMARK  Name = 74978145
REMARK  12 active torsions:
REMARK  status: ('A' for Active; 'I' for Inactive)
REMARK    1  A    between atoms: O_2  and  C_26
REMARK    2  A    between atoms: O_2  and  C_30
REMARK    3  A    between atoms: O_5  and  C_28
REMARK    4  A    between atoms: O_5  and  C_39
REMARK    5  A    between atoms: O_12  and  C_36
REMARK    6  A    between atoms: O_12  and  C_40
REMARK    7  A    between atoms: O_20  and  C_56
REMARK    8  A    between atoms: C_21  and  C_30
REMARK    9  A    between atoms: C_35  and  C_38
REMARK   10  A    between atoms: C_41  and  C_48
REMARK   11  A    between atoms: C_45  and  C_49
REMARK   12  A    between atoms: C_48  and  C_50
REMARK                            x       y       z     vdW  Elec       q    Type
REMARK                         _______ _______ _______ _____ _____    ______ ____
ROOT
ATOM      1  O   UNL     1     112.103 128.870 138.505  0.00  0.00    +0.000 OA
ATOM      2  O   UNL     1     109.872 128.497 139.512  0.00  0.00    +0.000 OA
ATOM      3  O   UNL     1     109.231 129.176 138.412  0.00  0.00    +0.000 OA
ATOM      4  C   UNL     1     111.293 128.345 139.558  0.00  0.00    +0.000 A 
ATOM      5  C   UNL     1     110.808 129.852 136.971  0.00  0.00    +0.000 A 
ATOM      6  C   UNL     1     111.509 129.562 137.375  0.00  0.00    +0.000 A 
ATOM      7  C   UNL     1     110.683 129.022 138.457  0.00  0.00    +0.000 A 
ATOM      8  C   UNL     1     111.426 129.146 138.122  0.00  0.00    +0.000 A 
ATOM      9  C   UNL     1     110.616 128.621 139.176  0.00  0.00    +0.000 A 
ATOM     10  C   UNL     1     112.036 128.469 139.223  0.00  0.00    +0.000 A 
ATOM     11  C   UNL     1     110.034 129.723 137.320  0.00  0.00    +0.000 A 
ATOM     12  C   UNL     1     109.971 129.305 138.069  0.00  0.00    +0.000 A 
ENDROOT
BRANCH  10  13
ATOM     13  C   UNL     1     112.712 128.193 139.605  0.00  0.00    +0.000 A 
ATOM     14  C   UNL     1     112.995 128.582 140.276  0.00  0.00    +0.000 A 
ATOM     15  C   UNL     1     113.106 127.528 139.317  0.00  0.00    +0.000 A 
ATOM     16  C   UNL     1     113.672 128.305 140.658  0.00  0.00    +0.000 A 
ATOM     17  C   UNL     1     113.783 127.251 139.700  0.00  0.00    +0.000 A 
ATOM     18  C   UNL     1     114.065 127.640 140.370  0.00  0.00    +0.000 A 
BRANCH  18  19
ATOM     19  O   UNL     1     114.742 127.363 140.753  0.00  0.00    +0.000 OA
ATOM     20  C   UNL     1     114.673 126.931 141.452  0.00  0.00    +0.000 C 
ENDBRANCH  18  19
ENDBRANCH  10  13
BRANCH   4  21
ATOM     21  O   UNL     1     111.225 127.945 140.276  0.00  0.00    +0.000 OA
BRANCH  21  30
ATOM     22  O   UNL     1     110.757 126.748 139.654  0.00  0.00    +0.000 OA
ATOM     23  O   UNL     1     109.543 125.111 140.436  0.00  0.00    +0.000 OA
ATOM     24  O   UNL     1     109.639 126.089 141.761  0.00  0.00    +0.000 OA
ATOM     25  O   UNL     1     110.480 127.506 141.681  0.00  0.00    +0.000 OA
ATOM     26  C   UNL     1     110.336 126.039 139.694  0.00  0.00    +0.000 C 
ATOM     27  C   UNL     1     109.963 125.819 140.396  0.00  0.00    +0.000 C 
ATOM     28  C   UNL     1     110.012 126.309 141.059  0.00  0.00    +0.000 C 
ATOM     29  C   UNL     1     110.432 127.018 141.019  0.00  0.00    +0.000 C 
ATOM     30  C   UNL     1     110.805 127.236 140.316  0.00  0.00    +0.000 C 
BRANCH  26  31
ATOM     31  C   UNL     1     110.288 125.550 139.032  0.00  0.00    +0.000 C 
BRANCH  31  32
ATOM     32  O   UNL     1     110.976 125.294 138.656  0.00  0.00    +0.000 OA
BRANCH  32  38
ATOM     33  O   UNL     1     110.569 125.727 137.357  0.00  0.00    +0.000 OA
ATOM     34  O   UNL     1     111.843 124.067 137.974  0.00  0.00    +0.000 OA
ATOM     35  O   UNL     1     111.869 123.886 136.334  0.00  0.00    +0.000 OA
ATOM     36  O   UNL     1     111.027 124.933 135.376  0.00  0.00    +0.000 OA
ATOM     37  C   UNL     1     111.422 124.591 137.495  0.00  0.00    +0.000 C 
ATOM     38  C   UNL     1     110.989 125.204 137.836  0.00  0.00    +0.000 C 
ATOM     39  C   UNL     1     111.435 124.500 136.675  0.00  0.00    +0.000 C 
ATOM     40  C   UNL     1     111.014 125.024 136.196  0.00  0.00    +0.000 C 
ATOM     41  C   UNL     1     110.581 125.638 136.536  0.00  0.00    +0.000 C 
ATOM     42  C   UNL     1     110.161 126.161 136.057  0.00  0.00    +0.000 C 
ENDBRANCH  32  38
ENDBRANCH  31  32
ENDBRANCH  26  31
ENDBRANCH  21  30
ENDBRANCH   4  21
BRANCH   5  43
ATOM     43  O   UNL     1     110.877 130.252 136.253  0.00  0.00    +0.000 OA
BRANCH  43  52
ATOM     44  O   UNL     1     110.389 131.558 136.569  0.00  0.00    +0.000 OA
ATOM     45  O   UNL     1     108.875 131.464 134.613  0.00  0.00    +0.000 OA
ATOM     46  O   UNL     1     108.892 132.801 135.580  0.00  0.00    +0.000 OA
ATOM     47  O   UNL     1     109.868 130.190 134.949  0.00  0.00    +0.000 OA
ATOM     48  C   UNL     1     109.380 131.495 135.265  0.00  0.00    +0.000 C 
ATOM     49  C   UNL     1     109.388 132.164 135.749  0.00  0.00    +0.000 C 
ATOM     50  C   UNL     1     109.876 130.858 135.433  0.00  0.00    +0.000 C 
ATOM     51  C   UNL     1     109.893 132.195 136.400  0.00  0.00    +0.000 C 
ATOM     52  C   UNL     1     110.381 130.889 136.085  0.00  0.00    +0.000 C 
BRANCH  51  54
ATOM     53  O   UNL     1     110.619 133.212 137.091  0.00  0.00    +0.000 OA
ATOM     54  C   UNL     1     109.901 132.863 136.884  0.00  0.00    +0.000 C 
ENDBRANCH  51  54
ENDBRANCH  43  52
ENDBRANCH   5  43
BRANCH   6  55
ATOM     55  C   UNL     1     112.256 129.682 137.046  0.00  0.00    +0.000 C 
BRANCH  55  56
ATOM     56  C   UNL     1     112.549 129.155 136.481  0.00  0.00    +0.000 C 
ATOM     57  C   UNL     1     113.303 129.266 136.166  0.00  0.00    +0.000 C 
ATOM     58  C   UNL     1     113.594 128.739 135.602  0.00  0.00    +0.000 C 
ATOM     59  C   UNL     1     113.764 129.903 136.414  0.00  0.00    +0.000 C 
ENDBRANCH  55  56
ENDBRANCH   6  55
TORSDOF 12
ENDMDL
MODEL 7
REMARK VINA RESULT:     -10.6      1.726      5.777
REMARK  Name = 74978145
REMARK  12 active torsions:
REMARK  status: ('A' for Active; 'I' for Inactive)
REMARK    1  A    between atoms: O_2  and  C_26
REMARK    2  A    between atoms: O_2  and  C_30
REMARK    3  A    between atoms: O_5  and  C_28
REMARK    4  A    between atoms: O_5  and  C_39
REMARK    5  A    between atoms: O_12  and  C_36
REMARK    6  A    between atoms: O_12  and  C_40
REMARK    7  A    between atoms: O_20  and  C_56
REMARK    8  A    between atoms: C_21  and  C_30
REMARK    9  A    between atoms: C_35  and  C_38
REMARK   10  A    between atoms: C_41  and  C_48
REMARK   11  A    between atoms: C_45  and  C_49
REMARK   12  A    between atoms: C_48  and  C_50
REMARK                            x       y       z     vdW  Elec       q    Type
REMARK                         _______ _______ _______ _____ _____    ______ ____
ROOT
ATOM      1  O   UNL     1     112.755 129.233 138.745  0.00  0.00    +0.000 OA
ATOM      2  O   UNL     1     110.408 129.914 138.357  0.00  0.00    +0.000 OA
ATOM      3  O   UNL     1     110.079 129.673 139.741  0.00  0.00    +0.000 OA
ATOM      4  C   UNL     1     111.731 129.697 137.863  0.00  0.00    +0.000 A 
ATOM      5  C   UNL     1     111.920 128.962 140.800  0.00  0.00    +0.000 A 
ATOM      6  C   UNL     1     112.479 128.974 140.147  0.00  0.00    +0.000 A 
ATOM      7  C   UNL     1     111.432 129.450 139.239  0.00  0.00    +0.000 A 
ATOM      8  C   UNL     1     112.215 129.223 139.368  0.00  0.00    +0.000 A 
ATOM      9  C   UNL     1     111.190 129.687 138.486  0.00  0.00    +0.000 A 
ATOM     10  C   UNL     1     112.514 129.470 137.993  0.00  0.00    +0.000 A 
ATOM     11  C   UNL     1     111.105 129.198 140.666  0.00  0.00    +0.000 A 
ATOM     12  C   UNL     1     110.860 129.444 139.879  0.00  0.00    +0.000 A 
ENDROOT
BRANCH  10  13
ATOM     13  C   UNL     1     113.054 129.480 137.370  0.00  0.00    +0.000 A 
ATOM     14  C   UNL     1     113.371 130.195 137.109  0.00  0.00    +0.000 A 
ATOM     15  C   UNL     1     113.278 128.773 137.008  0.00  0.00    +0.000 A 
ATOM     16  C   UNL     1     113.911 130.205 136.487  0.00  0.00    +0.000 A 
ATOM     17  C   UNL     1     113.819 128.783 136.384  0.00  0.00    +0.000 A 
ATOM     18  C   UNL     1     114.135 129.499 136.124  0.00  0.00    +0.000 A 
BRANCH  18  19
ATOM     19  O   UNL     1     114.676 129.508 135.500  0.00  0.00    +0.000 OA
ATOM     20  C   UNL     1     114.406 129.495 134.721  0.00  0.00    +0.000 C 
ENDBRANCH  18  19
ENDBRANCH  10  13
BRANCH   4  21
ATOM     21  O   UNL     1     111.489 129.934 137.111  0.00  0.00    +0.000 OA
BRANCH  21  30
ATOM     22  O   UNL     1     110.802 128.715 136.826  0.00  0.00    +0.000 OA
ATOM     23  O   UNL     1     109.060 128.315 135.572  0.00  0.00    +0.000 OA
ATOM     24  O   UNL     1     109.221 129.945 135.373  0.00  0.00    +0.000 OA
ATOM     25  O   UNL     1     110.435 130.754 136.143  0.00  0.00    +0.000 OA
ATOM     26  C   UNL     1     110.195 128.310 136.441  0.00  0.00    +0.000 C 
ATOM     27  C   UNL     1     109.667 128.720 135.957  0.00  0.00    +0.000 C 
ATOM     28  C   UNL     1     109.748 129.535 135.857  0.00  0.00    +0.000 C 
ATOM     29  C   UNL     1     110.355 129.940 136.242  0.00  0.00    +0.000 C 
ATOM     30  C   UNL     1     110.882 129.529 136.726  0.00  0.00    +0.000 C 
BRANCH  26  31
ATOM     31  C   UNL     1     110.114 127.495 136.540  0.00  0.00    +0.000 C 
BRANCH  31  32
ATOM     32  O   UNL     1     110.703 126.986 136.268  0.00  0.00    +0.000 OA
BRANCH  32  38
ATOM     33  O   UNL     1     110.826 126.294 137.513  0.00  0.00    +0.000 OA
ATOM     34  O   UNL     1     111.173 125.623 135.465  0.00  0.00    +0.000 OA
ATOM     35  O   UNL     1     111.530 124.250 136.308  0.00  0.00    +0.000 OA
ATOM     36  O   UNL     1     111.418 124.240 137.954  0.00  0.00    +0.000 OA
ATOM     37  C   UNL     1     111.117 125.618 136.289  0.00  0.00    +0.000 C 
ATOM     38  C   UNL     1     110.882 126.299 136.690  0.00  0.00    +0.000 C 
ATOM     39  C   UNL     1     111.295 124.932 136.710  0.00  0.00    +0.000 C 
ATOM     40  C   UNL     1     111.239 124.927 137.533  0.00  0.00    +0.000 C 
ATOM     41  C   UNL     1     111.004 125.608 137.935  0.00  0.00    +0.000 C 
ATOM     42  C   UNL     1     110.948 125.603 138.757  0.00  0.00    +0.000 C 
ENDBRANCH  32  38
ENDBRANCH  31  32
ENDBRANCH  26  31
ENDBRANCH  21  30
ENDBRANCH   4  21
BRANCH   5  43
ATOM     43  O   UNL     1     112.165 128.725 141.552  0.00  0.00    +0.000 OA
BRANCH  43  52
ATOM     44  O   UNL     1     112.154 129.988 142.219  0.00  0.00    +0.000 OA
ATOM     45  O   UNL     1     111.056 128.944 144.176  0.00  0.00    +0.000 OA
ATOM     46  O   UNL     1     111.411 130.555 144.192  0.00  0.00    +0.000 OA
ATOM     47  O   UNL     1     111.433 128.028 142.856  0.00  0.00    +0.000 OA
ATOM     48  C   UNL     1     111.422 129.292 143.524  0.00  0.00    +0.000 C 
ATOM     49  C   UNL     1     111.599 130.097 143.531  0.00  0.00    +0.000 C 
ATOM     50  C   UNL     1     111.610 128.834 142.864  0.00  0.00    +0.000 C 
ATOM     51  C   UNL     1     111.965 130.446 142.879  0.00  0.00    +0.000 C 
ATOM     52  C   UNL     1     111.976 129.182 142.211  0.00  0.00    +0.000 C 
BRANCH  51  54
ATOM     53  O   UNL     1     112.823 131.527 142.511  0.00  0.00    +0.000 OA
ATOM     54  C   UNL     1     112.142 131.251 142.887  0.00  0.00    +0.000 C 
ENDBRANCH  51  54
ENDBRANCH  43  52
ENDBRANCH   5  43
BRANCH   6  55
ATOM     55  C   UNL     1     113.263 128.749 140.267  0.00  0.00    +0.000 C 
BRANCH  55  56
ATOM     56  C   UNL     1     113.469 127.950 140.259  0.00  0.00    +0.000 C 
ATOM     57  C   UNL     1     114.246 127.722 140.422  0.00  0.00    +0.000 C 
ATOM     58  C   UNL     1     114.451 126.923 140.414  0.00  0.00    +0.000 C 
ATOM     59  C   UNL     1     114.815 128.293 140.593  0.00  0.00    +0.000 C 
ENDBRANCH  55  56
ENDBRANCH   6  55
TORSDOF 12
ENDMDL
MODEL 8
REMARK VINA RESULT:     -10.5      1.571      5.547
REMARK  Name = 74978145
REMARK  12 active torsions:
REMARK  status: ('A' for Active; 'I' for Inactive)
REMARK    1  A    between atoms: O_2  and  C_26
REMARK    2  A    between atoms: O_2  and  C_30
REMARK    3  A    between atoms: O_5  and  C_28
REMARK    4  A    between atoms: O_5  and  C_39
REMARK    5  A    between atoms: O_12  and  C_36
REMARK    6  A    between atoms: O_12  and  C_40
REMARK    7  A    between atoms: O_20  and  C_56
REMARK    8  A    between atoms: C_21  and  C_30
REMARK    9  A    between atoms: C_35  and  C_38
REMARK   10  A    between atoms: C_41  and  C_48
REMARK   11  A    between atoms: C_45  and  C_49
REMARK   12  A    between atoms: C_48  and  C_50
REMARK                            x       y       z     vdW  Elec       q    Type
REMARK                         _______ _______ _______ _____ _____    ______ ____
ROOT
ATOM      1  O   UNL     1     113.121 130.161 138.506  0.00  0.00    +0.000 OA
ATOM      2  O   UNL     1     110.721 130.572 138.063  0.00  0.00    +0.000 OA
ATOM      3  O   UNL     1     110.425 130.537 139.475  0.00  0.00    +0.000 OA
ATOM      4  C   UNL     1     112.055 130.386 137.583  0.00  0.00    +0.000 A 
ATOM      5  C   UNL     1     112.328 130.165 140.596  0.00  0.00    +0.000 A 
ATOM      6  C   UNL     1     112.879 130.115 139.937  0.00  0.00    +0.000 A 
ATOM      7  C   UNL     1     111.788 130.346 138.987  0.00  0.00    +0.000 A 
ATOM      8  C   UNL     1     112.588 130.209 139.135  0.00  0.00    +0.000 A 
ATOM      9  C   UNL     1     111.521 130.435 138.210  0.00  0.00    +0.000 A 
ATOM     10  C   UNL     1     112.855 130.249 137.731  0.00  0.00    +0.000 A 
ATOM     11  C   UNL     1     111.495 130.308 140.442  0.00  0.00    +0.000 A 
ATOM     12  C   UNL     1     111.224 130.399 139.631  0.00  0.00    +0.000 A 
ENDROOT
BRANCH  10  13
ATOM     13  C   UNL     1     113.387 130.200 137.104  0.00  0.00    +0.000 A 
ATOM     14  C   UNL     1     113.657 129.464 136.847  0.00  0.00    +0.000 A 
ATOM     15  C   UNL     1     113.651 130.888 136.732  0.00  0.00    +0.000 A 
ATOM     16  C   UNL     1     114.190 129.415 136.219  0.00  0.00    +0.000 A 
ATOM     17  C   UNL     1     114.184 130.840 136.104  0.00  0.00    +0.000 A 
ATOM     18  C   UNL     1     114.453 130.103 135.848  0.00  0.00    +0.000 A 
BRANCH  18  19
ATOM     19  O   UNL     1     114.987 130.055 135.220  0.00  0.00    +0.000 OA
ATOM     20  C   UNL     1     114.859 129.512 134.612  0.00  0.00    +0.000 C 
ENDBRANCH  18  19
ENDBRANCH  10  13
BRANCH   4  21
ATOM     21  O   UNL     1     111.787 130.475 136.808  0.00  0.00    +0.000 OA
BRANCH  21  30
ATOM     22  O   UNL     1     111.229 129.165 136.690  0.00  0.00    +0.000 OA
ATOM     23  O   UNL     1     109.464 128.455 135.621  0.00  0.00    +0.000 OA
ATOM     24  O   UNL     1     109.418 130.065 135.263  0.00  0.00    +0.000 OA
ATOM     25  O   UNL     1     110.580 131.075 135.857  0.00  0.00    +0.000 OA
ATOM     26  C   UNL     1     110.648 128.660 136.393  0.00  0.00    +0.000 C 
ATOM     27  C   UNL     1     110.045 128.960 135.918  0.00  0.00    +0.000 C 
ATOM     28  C   UNL     1     110.022 129.765 135.739  0.00  0.00    +0.000 C 
ATOM     29  C   UNL     1     110.603 130.270 136.036  0.00  0.00    +0.000 C 
ATOM     30  C   UNL     1     111.206 129.970 136.511  0.00  0.00    +0.000 C 
BRANCH  26  31
ATOM     31  C   UNL     1     110.671 127.855 136.571  0.00  0.00    +0.000 C 
BRANCH  31  32
ATOM     32  O   UNL     1     110.866 127.606 137.333  0.00  0.00    +0.000 OA
BRANCH  32  38
ATOM     33  O   UNL     1     111.294 126.316 136.891  0.00  0.00    +0.000 OA
ATOM     34  O   UNL     1     110.527 126.983 138.823  0.00  0.00    +0.000 OA
ATOM     35  O   UNL     1     110.786 125.382 139.126  0.00  0.00    +0.000 OA
ATOM     36  O   UNL     1     111.384 124.404 137.940  0.00  0.00    +0.000 OA
ATOM     37  C   UNL     1     110.826 126.494 138.229  0.00  0.00    +0.000 C 
ATOM     38  C   UNL     1     110.996 126.805 137.484  0.00  0.00    +0.000 C 
ATOM     39  C   UNL     1     110.955 125.694 138.381  0.00  0.00    +0.000 C 
ATOM     40  C   UNL     1     111.254 125.204 137.787  0.00  0.00    +0.000 C 
ATOM     41  C   UNL     1     111.424 125.515 137.042  0.00  0.00    +0.000 C 
ATOM     42  C   UNL     1     111.723 125.027 136.450  0.00  0.00    +0.000 C 
ENDBRANCH  32  38
ENDBRANCH  31  32
ENDBRANCH  26  31
ENDBRANCH  21  30
ENDBRANCH   4  21
BRANCH   5  43
ATOM     43  O   UNL     1     112.598 130.076 141.371  0.00  0.00    +0.000 OA
BRANCH  43  52
ATOM     44  O   UNL     1     111.919 128.873 141.737  0.00  0.00    +0.000 OA
ATOM     45  O   UNL     1     111.297 129.886 143.907  0.00  0.00    +0.000 OA
ATOM     46  O   UNL     1     110.826 128.345 143.550  0.00  0.00    +0.000 OA
ATOM     47  O   UNL     1     112.183 130.751 142.818  0.00  0.00    +0.000 OA
ATOM     48  C   UNL     1     111.504 129.548 143.184  0.00  0.00    +0.000 C 
ATOM     49  C   UNL     1     111.269 128.778 143.005  0.00  0.00    +0.000 C 
ATOM     50  C   UNL     1     111.947 129.981 142.639  0.00  0.00    +0.000 C 
ATOM     51  C   UNL     1     111.476 128.440 142.282  0.00  0.00    +0.000 C 
ATOM     52  C   UNL     1     112.155 129.643 141.915  0.00  0.00    +0.000 C 
BRANCH  51  54
ATOM     53  O   UNL     1     111.778 127.143 141.765  0.00  0.00    +0.000 OA
ATOM     54  C   UNL     1     111.241 127.670 142.103  0.00  0.00    +0.000 C 
ENDBRANCH  51  54
ENDBRANCH  43  52
ENDBRANCH   5  43
BRANCH   6  55
ATOM     55  C   UNL     1     113.680 129.978 140.076  0.00  0.00    +0.000 C 
BRANCH  55  56
ATOM     56  C   UNL     1     114.178 130.605 140.278  0.00  0.00    +0.000 C 
ATOM     57  C   UNL     1     114.979 130.467 140.417  0.00  0.00    +0.000 C 
ATOM     58  C   UNL     1     115.476 131.095 140.618  0.00  0.00    +0.000 C 
ATOM     59  C   UNL     1     115.283 129.703 140.354  0.00  0.00    +0.000 C 
ENDBRANCH  55  56
ENDBRANCH   6  55
TORSDOF 12
ENDMDL
MODEL 9
REMARK VINA RESULT:     -10.4      1.760      5.125
REMARK  Name = 74978145
REMARK  12 active torsions:
REMARK  status: ('A' for Active; 'I' for Inactive)
REMARK    1  A    between atoms: O_2  and  C_26
REMARK    2  A    between atoms: O_2  and  C_30
REMARK    3  A    between atoms: O_5  and  C_28
REMARK    4  A    between atoms: O_5  and  C_39
REMARK    5  A    between atoms: O_12  and  C_36
REMARK    6  A    between atoms: O_12  and  C_40
REMARK    7  A    between atoms: O_20  and  C_56
REMARK    8  A    between atoms: C_21  and  C_30
REMARK    9  A    between atoms: C_35  and  C_38
REMARK   10  A    between atoms: C_41  and  C_48
REMARK   11  A    between atoms: C_45  and  C_49
REMARK   12  A    between atoms: C_48  and  C_50
REMARK                            x       y       z     vdW  Elec       q    Type
REMARK                         _______ _______ _______ _____ _____    ______ ____
ROOT
ATOM      1  O   UNL     1     111.767 127.698 139.442  0.00  0.00    +0.000 OA
ATOM      2  O   UNL     1     110.080 129.283 138.565  0.00  0.00    +0.000 OA
ATOM      3  O   UNL     1     110.470 130.278 139.534  0.00  0.00    +0.000 OA
ATOM      4  C   UNL     1     110.722 128.007 138.519  0.00  0.00    +0.000 A 
ATOM      5  C   UNL     1     112.121 129.441 140.796  0.00  0.00    +0.000 A 
ATOM      6  C   UNL     1     112.198 128.663 140.438  0.00  0.00    +0.000 A 
ATOM      7  C   UNL     1     111.126 128.975 139.489  0.00  0.00    +0.000 A 
ATOM      8  C   UNL     1     111.688 128.446 139.781  0.00  0.00    +0.000 A 
ATOM      9  C   UNL     1     110.642 128.755 138.857  0.00  0.00    +0.000 A 
ATOM     10  C   UNL     1     111.284 127.478 138.811  0.00  0.00    +0.000 A 
ATOM     11  C   UNL     1     111.535 129.991 140.491  0.00  0.00    +0.000 A 
ATOM     12  C   UNL     1     111.035 129.756 139.833  0.00  0.00    +0.000 A 
ENDROOT
BRANCH  10  13
ATOM     13  C   UNL     1     111.362 126.731 138.473  0.00  0.00    +0.000 A 
ATOM     14  C   UNL     1     110.816 126.138 138.649  0.00  0.00    +0.000 A 
ATOM     15  C   UNL     1     111.987 126.576 137.957  0.00  0.00    +0.000 A 
ATOM     16  C   UNL     1     110.895 125.390 138.310  0.00  0.00    +0.000 A 
ATOM     17  C   UNL     1     112.066 125.827 137.617  0.00  0.00    +0.000 A 
ATOM     18  C   UNL     1     111.519 125.235 137.794  0.00  0.00    +0.000 A 
BRANCH  18  19
ATOM     19  O   UNL     1     111.598 124.486 137.455  0.00  0.00    +0.000 OA
ATOM     20  C   UNL     1     111.637 124.408 136.635  0.00  0.00    +0.000 C 
ENDBRANCH  18  19
ENDBRANCH  10  13
BRANCH   4  21
ATOM     21  O   UNL     1     110.238 127.788 137.888  0.00  0.00    +0.000 OA
BRANCH  21  30
ATOM     22  O   UNL     1     110.906 128.642 136.958  0.00  0.00    +0.000 OA
ATOM     23  O   UNL     1     110.192 129.603 135.132  0.00  0.00    +0.000 OA
ATOM     24  O   UNL     1     108.833 128.801 135.614  0.00  0.00    +0.000 OA
ATOM     25  O   UNL     1     108.856 127.893 136.992  0.00  0.00    +0.000 OA
ATOM     26  C   UNL     1     110.894 129.096 136.269  0.00  0.00    +0.000 C 
ATOM     27  C   UNL     1     110.204 129.150 135.821  0.00  0.00    +0.000 C 
ATOM     28  C   UNL     1     109.524 128.748 136.062  0.00  0.00    +0.000 C 
ATOM     29  C   UNL     1     109.535 128.294 136.751  0.00  0.00    +0.000 C 
ATOM     30  C   UNL     1     110.226 128.242 137.199  0.00  0.00    +0.000 C 
BRANCH  26  31
ATOM     31  C   UNL     1     111.573 129.498 136.028  0.00  0.00    +0.000 C 
BRANCH  31  32
ATOM     32  O   UNL     1     112.277 129.084 135.908  0.00  0.00    +0.000 OA
BRANCH  32  38
ATOM     33  O   UNL     1     113.161 129.865 136.714  0.00  0.00    +0.000 OA
ATOM     34  O   UNL     1     113.407 129.044 134.706  0.00  0.00    +0.000 OA
ATOM     35  O   UNL     1     114.856 129.805 134.911  0.00  0.00    +0.000 OA
ATOM     36  O   UNL     1     115.176 130.606 136.318  0.00  0.00    +0.000 OA
ATOM     37  C   UNL     1     113.566 129.445 135.410  0.00  0.00    +0.000 C 
ATOM     38  C   UNL     1     113.001 129.465 136.011  0.00  0.00    +0.000 C 
ATOM     39  C   UNL     1     114.291 129.825 135.512  0.00  0.00    +0.000 C 
ATOM     40  C   UNL     1     114.451 130.226 136.216  0.00  0.00    +0.000 C 
ATOM     41  C   UNL     1     113.886 130.246 136.817  0.00  0.00    +0.000 C 
ATOM     42  C   UNL     1     114.046 130.646 137.520  0.00  0.00    +0.000 C 
ENDBRANCH  32  38
ENDBRANCH  31  32
ENDBRANCH  26  31
ENDBRANCH  21  30
ENDBRANCH   4  21
BRANCH   5  43
ATOM     43  O   UNL     1     112.605 129.659 141.427  0.00  0.00    +0.000 OA
BRANCH  43  52
ATOM     44  O   UNL     1     111.685 129.659 142.520  0.00  0.00    +0.000 OA
ATOM     45  O   UNL     1     112.504 131.892 143.206  0.00  0.00    +0.000 OA
ATOM     46  O   UNL     1     111.310 131.149 144.070  0.00  0.00    +0.000 OA
ATOM     47  O   UNL     1     113.151 131.147 141.884  0.00  0.00    +0.000 OA
ATOM     48  C   UNL     1     112.231 131.148 142.977  0.00  0.00    +0.000 C 
ATOM     49  C   UNL     1     111.634 130.777 143.409  0.00  0.00    +0.000 C 
ATOM     50  C   UNL     1     112.555 130.776 142.317  0.00  0.00    +0.000 C 
ATOM     51  C   UNL     1     111.361 130.032 143.181  0.00  0.00    +0.000 C 
ATOM     52  C   UNL     1     112.281 130.031 142.088  0.00  0.00    +0.000 C 
BRANCH  51  54
ATOM     53  O   UNL     1     110.787 128.845 143.728  0.00  0.00    +0.000 OA
ATOM     54  C   UNL     1     110.764 129.661 143.613  0.00  0.00    +0.000 C 
ENDBRANCH  51  54
ENDBRANCH  43  52
ENDBRANCH   5  43
BRANCH   6  55
ATOM     55  C   UNL     1     112.757 128.129 140.725  0.00  0.00    +0.000 C 
BRANCH  55  56
ATOM     56  C   UNL     1     113.547 128.193 140.492  0.00  0.00    +0.000 C 
ATOM     57  C   UNL     1     114.099 127.639 140.753  0.00  0.00    +0.000 C 
ATOM     58  C   UNL     1     114.888 127.703 140.520  0.00  0.00    +0.000 C 
ATOM     59  C   UNL     1     113.864 127.021 141.246  0.00  0.00    +0.000 C 
ENDBRANCH  55  56
ENDBRANCH   6  55
TORSDOF 12
ENDMDL
MODEL 10
REMARK VINA RESULT:     -10.4      1.960      5.010
REMARK  Name = 74978145
REMARK  12 active torsions:
REMARK  status: ('A' for Active; 'I' for Inactive)
REMARK    1  A    between atoms: O_2  and  C_26
REMARK    2  A    between atoms: O_2  and  C_30
REMARK    3  A    between atoms: O_5  and  C_28
REMARK    4  A    between atoms: O_5  and  C_39
REMARK    5  A    between atoms: O_12  and  C_36
REMARK    6  A    between atoms: O_12  and  C_40
REMARK    7  A    between atoms: O_20  and  C_56
REMARK    8  A    between atoms: C_21  and  C_30
REMARK    9  A    between atoms: C_35  and  C_38
REMARK   10  A    between atoms: C_41  and  C_48
REMARK   11  A    between atoms: C_45  and  C_49
REMARK   12  A    between atoms: C_48  and  C_50
REMARK                            x       y       z     vdW  Elec       q    Type
REMARK                         _______ _______ _______ _____ _____    ______ ____
ROOT
ATOM      1  O   UNL     1     112.746 126.590 138.695  0.00  0.00    +0.000 OA
ATOM      2  O   UNL     1     110.535 125.676 138.062  0.00  0.00    +0.000 OA
ATOM      3  O   UNL     1     109.954 126.154 139.294  0.00  0.00    +0.000 OA
ATOM      4  C   UNL     1     111.916 125.892 137.765  0.00  0.00    +0.000 A 
ATOM      5  C   UNL     1     111.546 127.188 140.483  0.00  0.00    +0.000 A 
ATOM      6  C   UNL     1     112.213 127.092 139.949  0.00  0.00    +0.000 A 
ATOM      7  C   UNL     1     111.366 126.375 138.992  0.00  0.00    +0.000 A 
ATOM      8  C   UNL     1     112.103 126.680 139.203  0.00  0.00    +0.000 A 
ATOM      9  C   UNL     1     111.272 125.981 138.273  0.00  0.00    +0.000 A 
ATOM     10  C   UNL     1     112.653 126.196 137.976  0.00  0.00    +0.000 A 
ATOM     11  C   UNL     1     110.778 126.871 140.263  0.00  0.00    +0.000 A 
ATOM     12  C   UNL     1     110.688 126.461 139.513  0.00  0.00    +0.000 A 
ENDROOT
BRANCH  10  13
ATOM     13  C   UNL     1     113.296 126.107 137.468  0.00  0.00    +0.000 A 
ATOM     14  C   UNL     1     113.556 126.744 137.013  0.00  0.00    +0.000 A 
ATOM     15  C   UNL     1     113.682 125.379 137.415  0.00  0.00    +0.000 A 
ATOM     16  C   UNL     1     114.199 126.655 136.505  0.00  0.00    +0.000 A 
ATOM     17  C   UNL     1     114.326 125.289 136.906  0.00  0.00    +0.000 A 
ATOM     18  C   UNL     1     114.584 125.927 136.452  0.00  0.00    +0.000 A 
BRANCH  18  19
ATOM     19  O   UNL     1     115.228 125.838 135.944  0.00  0.00    +0.000 OA
ATOM     20  C   UNL     1     115.424 125.090 135.656  0.00  0.00    +0.000 C 
ENDBRANCH  18  19
ENDBRANCH  10  13
BRANCH   4  21
ATOM     21  O   UNL     1     111.822 125.498 137.047  0.00  0.00    +0.000 OA
BRANCH  21  30
ATOM     22  O   UNL     1     111.178 126.617 136.435  0.00  0.00    +0.000 OA
ATOM     23  O   UNL     1     109.807 126.726 134.740  0.00  0.00    +0.000 OA
ATOM     24  O   UNL     1     110.088 125.102 134.810  0.00  0.00    +0.000 OA
ATOM     25  O   UNL     1     111.095 124.488 135.964  0.00  0.00    +0.000 OA
ATOM     26  C   UNL     1     110.675 126.924 135.859  0.00  0.00    +0.000 C 
ATOM     27  C   UNL     1     110.311 126.419 135.317  0.00  0.00    +0.000 C 
ATOM     28  C   UNL     1     110.451 125.606 135.352  0.00  0.00    +0.000 C 
ATOM     29  C   UNL     1     110.955 125.299 135.929  0.00  0.00    +0.000 C 
ATOM     30  C   UNL     1     111.318 125.805 136.470  0.00  0.00    +0.000 C 
BRANCH  26  31
ATOM     31  C   UNL     1     110.534 127.736 135.823  0.00  0.00    +0.000 C 
BRANCH  31  32
ATOM     32  O   UNL     1     110.118 128.110 136.430  0.00  0.00    +0.000 OA
BRANCH  32  38
ATOM     33  O   UNL     1     110.931 129.284 136.386  0.00  0.00    +0.000 OA
ATOM     34  O   UNL     1     108.860 129.003 137.014  0.00  0.00    +0.000 OA
ATOM     35  O   UNL     1     109.043 130.624 137.262  0.00  0.00    +0.000 OA
ATOM     36  O   UNL     1     110.486 131.352 136.926  0.00  0.00    +0.000 OA
ATOM     37  C   UNL     1     109.581 129.367 136.845  0.00  0.00    +0.000 C 
ATOM     38  C   UNL     1     110.211 128.920 136.553  0.00  0.00    +0.000 C 
ATOM     39  C   UNL     1     109.673 130.177 136.970  0.00  0.00    +0.000 C 
ATOM     40  C   UNL     1     110.394 130.541 136.801  0.00  0.00    +0.000 C 
ATOM     41  C   UNL     1     111.024 130.095 136.509  0.00  0.00    +0.000 C 
ATOM     42  C   UNL     1     111.744 130.459 136.342  0.00  0.00    +0.000 C 
ENDBRANCH  32  38
ENDBRANCH  31  32
ENDBRANCH  26  31
ENDBRANCH  21  30
ENDBRANCH   4  21
BRANCH   5  43
ATOM     43  O   UNL     1     111.642 127.582 141.201  0.00  0.00    +0.000 OA
BRANCH  43  52
ATOM     44  O   UNL     1     110.943 128.797 140.923  0.00  0.00    +0.000 OA
ATOM     45  O   UNL     1     109.811 128.646 143.119  0.00  0.00    +0.000 OA
ATOM     46  O   UNL     1     109.489 129.911 142.111  0.00  0.00    +0.000 OA
ATOM     47  O   UNL     1     110.887 127.481 142.665  0.00  0.00    +0.000 OA
ATOM     48  C   UNL     1     110.188 128.696 142.387  0.00  0.00    +0.000 C 
ATOM     49  C   UNL     1     110.027 129.329 141.883  0.00  0.00    +0.000 C 
ATOM     50  C   UNL     1     110.726 128.114 142.160  0.00  0.00    +0.000 C 
ATOM     51  C   UNL     1     110.404 129.380 141.151  0.00  0.00    +0.000 C 
ATOM     52  C   UNL     1     111.104 128.165 141.428  0.00  0.00    +0.000 C 
BRANCH  51  54
ATOM     53  O   UNL     1     110.861 130.392 140.252  0.00  0.00    +0.000 OA
ATOM     54  C   UNL     1     110.243 130.012 140.647  0.00  0.00    +0.000 C 
ENDBRANCH  51  54
ENDBRANCH  43  52
ENDBRANCH   5  43
BRANCH   6  55
ATOM     55  C   UNL     1     112.954 127.393 140.152  0.00  0.00    +0.000 C 
BRANCH  55  56
ATOM     56  C   UNL     1     113.478 126.937 140.597  0.00  0.00    +0.000 C 
ATOM     57  C   UNL     1     114.216 127.241 140.804  0.00  0.00    +0.000 C 
ATOM     58  C   UNL     1     114.739 126.784 141.249  0.00  0.00    +0.000 C 
ATOM     59  C   UNL     1     114.431 128.000 140.565  0.00  0.00    +0.000 C 
ENDBRANCH  55  56
ENDBRANCH   6  55
TORSDOF 12
ENDMDL
