MODEL 1
REMARK VINA RESULT:      -8.2      0.000      0.000
REMARK  Name = 14134167
REMARK  4 active torsions:
REMARK  status: ('A' for Active; 'I' for Inactive)
REMARK    1  A    between atoms: O_2  and  C_12
REMARK    2  A    between atoms: O_3  and  C_14
REMARK    3  A    between atoms: O_4  and  C_17
REMARK    4  A    between atoms: C_11  and  C_16
REMARK                            x       y       z     vdW  Elec       q    Type
REMARK                         _______ _______ _______ _____ _____    ______ ____
ROOT
ATOM      1  O   UNL     1     112.382 126.608 136.242  0.00  0.00    +0.000 OA
ATOM      2  O   UNL     1     109.972 125.649 134.969  0.00  0.00    +0.000 OA
ATOM      3  O   UNL     1     110.857 124.747 135.665  0.00  0.00    +0.000 OA
ATOM      4  C   UNL     1     111.190 126.135 135.613  0.00  0.00    +0.000 A 
ATOM      5  C   UNL     1     111.698 126.756 135.805  0.00  0.00    +0.000 A 
ATOM      6  C   UNL     1     112.558 125.840 136.488  0.00  0.00    +0.000 A 
ATOM      7  C   UNL     1     112.049 125.220 136.295  0.00  0.00    +0.000 A 
ATOM      8  C   UNL     1     111.365 125.367 135.857  0.00  0.00    +0.000 A 
ATOM      9  C   UNL     1     111.526 127.560 135.556  0.00  0.00    +0.000 A 
ATOM     10  C   UNL     1     110.474 126.276 135.157  0.00  0.00    +0.000 A 
ATOM     11  C   UNL     1     110.816 127.720 135.100  0.00  0.00    +0.000 A 
ATOM     12  C   UNL     1     110.286 127.073 134.899  0.00  0.00    +0.000 A 
ENDROOT
BRANCH   6  15
ATOM     13  O   UNL     1     112.625 126.264 138.081  0.00  0.00    +0.000 OA
ATOM     14  O   UNL     1     113.992 125.969 138.956  0.00  0.00    +0.000 OA
ATOM     15  C   UNL     1     113.241 125.693 136.925  0.00  0.00    +0.000 A 
ATOM     16  C   UNL     1     113.274 125.905 137.721  0.00  0.00    +0.000 A 
ATOM     17  C   UNL     1     113.891 125.333 136.566  0.00  0.00    +0.000 A 
ATOM     18  C   UNL     1     113.959 125.757 138.159  0.00  0.00    +0.000 A 
ATOM     19  C   UNL     1     114.574 125.186 137.003  0.00  0.00    +0.000 A 
ATOM     20  C   UNL     1     114.608 125.398 137.800  0.00  0.00    +0.000 A 
ENDBRANCH   6  15
BRANCH   7  21
ATOM     21  O   UNL     1     112.224 124.452 136.539  0.00  0.00    +0.000 OA
ATOM     22  C   UNL     1     111.701 123.836 136.372  0.00  0.00    +0.000 C 
ENDBRANCH   7  21
BRANCH   9  23
ATOM     23  O   UNL     1     112.041 128.175 135.753  0.00  0.00    +0.000 OA
ATOM     24  C   UNL     1     112.483 128.546 135.164  0.00  0.00    +0.000 C 
ENDBRANCH   9  23
BRANCH  11  25
ATOM     25  O   UNL     1     110.643 128.489 134.857  0.00  0.00    +0.000 OA
ATOM     26  C   UNL     1     109.871 128.692 134.648  0.00  0.00    +0.000 C 
ENDBRANCH  11  25
TORSDOF 4
ENDMDL
MODEL 2
REMARK VINA RESULT:      -8.2     12.800     13.627
REMARK  Name = 14134167
REMARK  4 active torsions:
REMARK  status: ('A' for Active; 'I' for Inactive)
REMARK    1  A    between atoms: O_2  and  C_12
REMARK    2  A    between atoms: O_3  and  C_14
REMARK    3  A    between atoms: O_4  and  C_17
REMARK    4  A    between atoms: C_11  and  C_16
REMARK                            x       y       z     vdW  Elec       q    Type
REMARK                         _______ _______ _______ _____ _____    ______ ____
ROOT
ATOM      1  O   UNL     1     105.202 124.453 147.306  0.00  0.00    +0.000 OA
ATOM      2  O   UNL     1     102.565 125.387 148.027  0.00  0.00    +0.000 OA
ATOM      3  O   UNL     1     103.735 125.836 148.742  0.00  0.00    +0.000 OA
ATOM      4  C   UNL     1     103.898 124.914 147.662  0.00  0.00    +0.000 A 
ATOM      5  C   UNL     1     104.387 124.453 147.183  0.00  0.00    +0.000 A 
ATOM      6  C   UNL     1     105.530 124.914 147.907  0.00  0.00    +0.000 A 
ATOM      7  C   UNL     1     105.041 125.375 148.386  0.00  0.00    +0.000 A 
ATOM      8  C   UNL     1     104.224 125.375 148.263  0.00  0.00    +0.000 A 
ATOM      9  C   UNL     1     104.058 123.969 146.554  0.00  0.00    +0.000 A 
ATOM     10  C   UNL     1     103.046 124.923 147.544  0.00  0.00    +0.000 A 
ATOM     11  C   UNL     1     103.209 123.965 146.421  0.00  0.00    +0.000 A 
ATOM     12  C   UNL     1     102.700 124.445 146.920  0.00  0.00    +0.000 A 
ENDROOT
BRANCH   6  15
ATOM     13  O   UNL     1     106.509 125.826 146.942  0.00  0.00    +0.000 OA
ATOM     14  O   UNL     1     108.141 125.826 147.187  0.00  0.00    +0.000 OA
ATOM     15  C   UNL     1     106.345 124.913 148.030  0.00  0.00    +0.000 A 
ATOM     16  C   UNL     1     106.834 125.370 147.547  0.00  0.00    +0.000 A 
ATOM     17  C   UNL     1     106.672 124.457 148.635  0.00  0.00    +0.000 A 
ATOM     18  C   UNL     1     107.651 125.370 147.670  0.00  0.00    +0.000 A 
ATOM     19  C   UNL     1     107.487 124.457 148.757  0.00  0.00    +0.000 A 
ATOM     20  C   UNL     1     107.977 124.914 148.275  0.00  0.00    +0.000 A 
ENDBRANCH   6  15
BRANCH   7  21
ATOM     21  O   UNL     1     105.367 125.835 148.987  0.00  0.00    +0.000 OA
ATOM     22  C   UNL     1     104.891 126.108 149.603  0.00  0.00    +0.000 C 
ENDBRANCH   7  21
BRANCH   9  23
ATOM     23  O   UNL     1     104.555 123.511 146.080  0.00  0.00    +0.000 OA
ATOM     24  C   UNL     1     104.625 123.678 145.275  0.00  0.00    +0.000 C 
ENDBRANCH   9  23
BRANCH  11  25
ATOM     25  O   UNL     1     102.885 123.503 145.819  0.00  0.00    +0.000 OA
ATOM     26  C   UNL     1     102.095 123.268 145.860  0.00  0.00    +0.000 C 
ENDBRANCH  11  25
TORSDOF 4
ENDMDL
MODEL 3
REMARK VINA RESULT:      -8.2     12.313     13.512
REMARK  Name = 14134167
REMARK  4 active torsions:
REMARK  status: ('A' for Active; 'I' for Inactive)
REMARK    1  A    between atoms: O_2  and  C_12
REMARK    2  A    between atoms: O_3  and  C_14
REMARK    3  A    between atoms: O_4  and  C_17
REMARK    4  A    between atoms: C_11  and  C_16
REMARK                            x       y       z     vdW  Elec       q    Type
REMARK                         _______ _______ _______ _____ _____    ______ ____
ROOT
ATOM      1  O   UNL     1     105.078 124.303 147.421  0.00  0.00    +0.000 OA
ATOM      2  O   UNL     1     107.509 125.530 146.456  0.00  0.00    +0.000 OA
ATOM      3  O   UNL     1     106.394 125.292 145.573  0.00  0.00    +0.000 OA
ATOM      4  C   UNL     1     106.281 124.910 146.945  0.00  0.00    +0.000 A 
ATOM      5  C   UNL     1     105.842 124.580 147.561  0.00  0.00    +0.000 A 
ATOM      6  C   UNL     1     104.752 124.356 146.665  0.00  0.00    +0.000 A 
ATOM      7  C   UNL     1     105.190 124.685 146.049  0.00  0.00    +0.000 A 
ATOM      8  C   UNL     1     105.955 124.962 146.189  0.00  0.00    +0.000 A 
ATOM      9  C   UNL     1     106.171 124.520 148.354  0.00  0.00    +0.000 A 
ATOM     10  C   UNL     1     107.079 125.202 147.078  0.00  0.00    +0.000 A 
ATOM     11  C   UNL     1     106.966 124.807 148.505  0.00  0.00    +0.000 A 
ATOM     12  C   UNL     1     107.423 125.150 147.863  0.00  0.00    +0.000 A 
ENDROOT
BRANCH   6  15
ATOM     13  O   UNL     1     103.450 125.258 147.128  0.00  0.00    +0.000 OA
ATOM     14  O   UNL     1     101.921 124.704 146.848  0.00  0.00    +0.000 OA
ATOM     15  C   UNL     1     103.988 124.079 146.525  0.00  0.00    +0.000 A 
ATOM     16  C   UNL     1     103.337 124.530 146.757  0.00  0.00    +0.000 A 
ATOM     17  C   UNL     1     103.874 123.351 146.154  0.00  0.00    +0.000 A 
ATOM     18  C   UNL     1     102.572 124.253 146.617  0.00  0.00    +0.000 A 
ATOM     19  C   UNL     1     103.110 123.074 146.014  0.00  0.00    +0.000 A 
ATOM     20  C   UNL     1     102.459 123.525 146.245  0.00  0.00    +0.000 A 
ENDBRANCH   6  15
BRANCH   7  21
ATOM     21  O   UNL     1     104.865 124.738 145.293  0.00  0.00    +0.000 OA
ATOM     22  C   UNL     1     105.357 124.834 144.637  0.00  0.00    +0.000 C 
ENDBRANCH   7  21
BRANCH   9  23
ATOM     23  O   UNL     1     105.724 124.189 148.963  0.00  0.00    +0.000 OA
ATOM     24  C   UNL     1     105.505 124.651 149.610  0.00  0.00    +0.000 C 
ENDBRANCH   9  23
BRANCH  11  25
ATOM     25  O   UNL     1     107.289 124.753 149.262  0.00  0.00    +0.000 OA
ATOM     26  C   UNL     1     108.091 124.584 149.357  0.00  0.00    +0.000 C 
ENDBRANCH  11  25
TORSDOF 4
ENDMDL
MODEL 4
REMARK VINA RESULT:      -7.9     12.737     13.451
REMARK  Name = 14134167
REMARK  4 active torsions:
REMARK  status: ('A' for Active; 'I' for Inactive)
REMARK    1  A    between atoms: O_2  and  C_12
REMARK    2  A    between atoms: O_3  and  C_14
REMARK    3  A    between atoms: O_4  and  C_17
REMARK    4  A    between atoms: C_11  and  C_16
REMARK                            x       y       z     vdW  Elec       q    Type
REMARK                         _______ _______ _______ _____ _____    ______ ____
ROOT
ATOM      1  O   UNL     1     104.712 125.072 147.562  0.00  0.00    +0.000 OA
ATOM      2  O   UNL     1     102.913 123.812 145.686  0.00  0.00    +0.000 OA
ATOM      3  O   UNL     1     104.292 124.058 145.343  0.00  0.00    +0.000 OA
ATOM      4  C   UNL     1     103.822 124.449 146.635  0.00  0.00    +0.000 A 
ATOM      5  C   UNL     1     103.961 124.787 147.374  0.00  0.00    +0.000 A 
ATOM      6  C   UNL     1     105.324 125.019 147.010  0.00  0.00    +0.000 A 
ATOM      7  C   UNL     1     105.184 124.681 146.271  0.00  0.00    +0.000 A 
ATOM      8  C   UNL     1     104.432 124.396 146.083  0.00  0.00    +0.000 A 
ATOM      9  C   UNL     1     103.333 124.848 147.958  0.00  0.00    +0.000 A 
ATOM     10  C   UNL     1     103.043 124.148 146.427  0.00  0.00    +0.000 A 
ATOM     11  C   UNL     1     102.549 124.552 147.768  0.00  0.00    +0.000 A 
ATOM     12  C   UNL     1     102.403 124.200 146.997  0.00  0.00    +0.000 A 
ENDROOT
BRANCH   6  15
ATOM     13  O   UNL     1     106.325 124.133 147.976  0.00  0.00    +0.000 OA
ATOM     14  O   UNL     1     107.827 124.703 148.352  0.00  0.00    +0.000 OA
ATOM     15  C   UNL     1     106.074 125.304 147.198  0.00  0.00    +0.000 A 
ATOM     16  C   UNL     1     106.575 124.861 147.681  0.00  0.00    +0.000 A 
ATOM     17  C   UNL     1     106.325 126.033 146.902  0.00  0.00    +0.000 A 
ATOM     18  C   UNL     1     107.327 125.146 147.869  0.00  0.00    +0.000 A 
ATOM     19  C   UNL     1     107.076 126.318 147.090  0.00  0.00    +0.000 A 
ATOM     20  C   UNL     1     107.576 125.874 147.573  0.00  0.00    +0.000 A 
ENDBRANCH   6  15
BRANCH   7  21
ATOM     21  O   UNL     1     105.794 124.628 145.719  0.00  0.00    +0.000 OA
ATOM     22  C   UNL     1     105.621 124.592 144.913  0.00  0.00    +0.000 C 
ENDBRANCH   7  21
BRANCH   9  23
ATOM     23  O   UNL     1     103.482 125.187 148.694  0.00  0.00    +0.000 OA
ATOM     24  C   UNL     1     103.168 125.928 148.877  0.00  0.00    +0.000 C 
ENDBRANCH   9  23
BRANCH  11  25
ATOM     25  O   UNL     1     101.940 124.606 148.321  0.00  0.00    +0.000 OA
ATOM     26  C   UNL     1     101.249 124.167 148.219  0.00  0.00    +0.000 C 
ENDBRANCH  11  25
TORSDOF 4
ENDMDL
MODEL 5
REMARK VINA RESULT:      -7.7      3.445      5.874
REMARK  Name = 14134167
REMARK  4 active torsions:
REMARK  status: ('A' for Active; 'I' for Inactive)
REMARK    1  A    between atoms: O_2  and  C_12
REMARK    2  A    between atoms: O_3  and  C_14
REMARK    3  A    between atoms: O_4  and  C_17
REMARK    4  A    between atoms: C_11  and  C_16
REMARK                            x       y       z     vdW  Elec       q    Type
REMARK                         _______ _______ _______ _____ _____    ______ ____
ROOT
ATOM      1  O   UNL     1     110.064 130.502 136.659  0.00  0.00    +0.000 OA
ATOM      2  O   UNL     1     107.938 128.791 135.712  0.00  0.00    +0.000 OA
ATOM      3  O   UNL     1     107.721 130.202 135.920  0.00  0.00    +0.000 OA
ATOM      4  C   UNL     1     109.014 129.655 136.191  0.00  0.00    +0.000 A 
ATOM      5  C   UNL     1     109.795 129.755 136.437  0.00  0.00    +0.000 A 
ATOM      6  C   UNL     1     109.553 131.150 136.635  0.00  0.00    +0.000 A 
ATOM      7  C   UNL     1     108.772 131.050 136.389  0.00  0.00    +0.000 A 
ATOM      8  C   UNL     1     108.502 130.302 136.167  0.00  0.00    +0.000 A 
ATOM      9  C   UNL     1     110.337 129.088 136.467  0.00  0.00    +0.000 A 
ATOM     10  C   UNL     1     108.720 128.881 135.957  0.00  0.00    +0.000 A 
ATOM     11  C   UNL     1     110.061 128.308 136.237  0.00  0.00    +0.000 A 
ATOM     12  C   UNL     1     109.247 128.204 135.980  0.00  0.00    +0.000 A 
ENDROOT
BRANCH   6  15
ATOM     13  O   UNL     1     109.666 131.544 138.234  0.00  0.00    +0.000 OA
ATOM     14  O   UNL     1     110.205 133.039 138.678  0.00  0.00    +0.000 OA
ATOM     15  C   UNL     1     109.823 131.896 136.857  0.00  0.00    +0.000 A 
ATOM     16  C   UNL     1     109.879 132.094 137.657  0.00  0.00    +0.000 A 
ATOM     17  C   UNL     1     110.037 132.447 136.281  0.00  0.00    +0.000 A 
ATOM     18  C   UNL     1     110.149 132.842 137.879  0.00  0.00    +0.000 A 
ATOM     19  C   UNL     1     110.306 133.194 136.503  0.00  0.00    +0.000 A 
ATOM     20  C   UNL     1     110.362 133.391 137.302  0.00  0.00    +0.000 A 
ENDBRANCH   6  15
BRANCH   7  21
ATOM     21  O   UNL     1     108.261 131.696 136.365  0.00  0.00    +0.000 OA
ATOM     22  C   UNL     1     107.581 131.668 135.898  0.00  0.00    +0.000 C 
ENDBRANCH   7  21
BRANCH   9  23
ATOM     23  O   UNL     1     111.116 129.198 136.715  0.00  0.00    +0.000 OA
ATOM     24  C   UNL     1     111.732 129.150 136.168  0.00  0.00    +0.000 C 
ENDBRANCH   9  23
BRANCH  11  25
ATOM     25  O   UNL     1     110.574 127.663 136.262  0.00  0.00    +0.000 OA
ATOM     26  C   UNL     1     110.272 126.895 136.266  0.00  0.00    +0.000 C 
ENDBRANCH  11  25
TORSDOF 4
ENDMDL
MODEL 6
REMARK VINA RESULT:      -7.7     13.020     13.795
REMARK  Name = 14134167
REMARK  4 active torsions:
REMARK  status: ('A' for Active; 'I' for Inactive)
REMARK    1  A    between atoms: O_2  and  C_12
REMARK    2  A    between atoms: O_3  and  C_14
REMARK    3  A    between atoms: O_4  and  C_17
REMARK    4  A    between atoms: C_11  and  C_16
REMARK                            x       y       z     vdW  Elec       q    Type
REMARK                         _______ _______ _______ _____ _____    ______ ____
ROOT
ATOM      1  O   UNL     1     103.962 124.371 147.463  0.00  0.00    +0.000 OA
ATOM      2  O   UNL     1     103.167 123.085 145.001  0.00  0.00    +0.000 OA
ATOM      3  O   UNL     1     104.464 123.701 145.134  0.00  0.00    +0.000 OA
ATOM      4  C   UNL     1     103.568 123.735 146.246  0.00  0.00    +0.000 A 
ATOM      5  C   UNL     1     103.400 123.959 147.022  0.00  0.00    +0.000 A 
ATOM      6  C   UNL     1     104.692 124.561 147.128  0.00  0.00    +0.000 A 
ATOM      7  C   UNL     1     104.859 124.337 146.351  0.00  0.00    +0.000 A 
ATOM      8  C   UNL     1     104.297 123.924 145.910  0.00  0.00    +0.000 A 
ATOM      9  C   UNL     1     102.644 123.767 147.383  0.00  0.00    +0.000 A 
ATOM     10  C   UNL     1     102.990 123.304 145.776  0.00  0.00    +0.000 A 
ATOM     11  C   UNL     1     102.055 123.337 146.929  0.00  0.00    +0.000 A 
ATOM     12  C   UNL     1     102.229 123.104 146.120  0.00  0.00    +0.000 A 
ENDROOT
BRANCH   6  15
ATOM     13  O   UNL     1     104.523 126.185 147.366  0.00  0.00    +0.000 OA
ATOM     14  O   UNL     1     105.647 127.011 148.247  0.00  0.00    +0.000 OA
ATOM     15  C   UNL     1     105.254 124.973 147.568  0.00  0.00    +0.000 A 
ATOM     16  C   UNL     1     105.169 125.785 147.687  0.00  0.00    +0.000 A 
ATOM     17  C   UNL     1     105.901 124.575 147.890  0.00  0.00    +0.000 A 
ATOM     18  C   UNL     1     105.732 126.199 148.128  0.00  0.00    +0.000 A 
ATOM     19  C   UNL     1     106.462 124.987 148.330  0.00  0.00    +0.000 A 
ATOM     20  C   UNL     1     106.378 125.799 148.449  0.00  0.00    +0.000 A 
ENDBRANCH   6  15
BRANCH   7  21
ATOM     21  O   UNL     1     105.589 124.526 146.015  0.00  0.00    +0.000 OA
ATOM     22  C   UNL     1     105.676 124.533 145.195  0.00  0.00    +0.000 C 
ENDBRANCH   7  21
BRANCH   9  23
ATOM     23  O   UNL     1     102.485 123.995 148.160  0.00  0.00    +0.000 OA
ATOM     24  C   UNL     1     102.420 123.423 148.751  0.00  0.00    +0.000 C 
ENDBRANCH   9  23
BRANCH  11  25
ATOM     25  O   UNL     1     101.326 123.149 147.267  0.00  0.00    +0.000 OA
ATOM     26  C   UNL     1     100.712 122.868 146.793  0.00  0.00    +0.000 C 
ENDBRANCH  11  25
TORSDOF 4
ENDMDL
MODEL 7
REMARK VINA RESULT:      -7.7      1.274      3.285
REMARK  Name = 14134167
REMARK  4 active torsions:
REMARK  status: ('A' for Active; 'I' for Inactive)
REMARK    1  A    between atoms: O_2  and  C_12
REMARK    2  A    between atoms: O_3  and  C_14
REMARK    3  A    between atoms: O_4  and  C_17
REMARK    4  A    between atoms: C_11  and  C_16
REMARK                            x       y       z     vdW  Elec       q    Type
REMARK                         _______ _______ _______ _____ _____    ______ ____
ROOT
ATOM      1  O   UNL     1     112.823 126.660 136.545  0.00  0.00    +0.000 OA
ATOM      2  O   UNL     1     110.519 125.266 135.498  0.00  0.00    +0.000 OA
ATOM      3  O   UNL     1     110.683 126.685 135.301  0.00  0.00    +0.000 OA
ATOM      4  C   UNL     1     111.684 125.970 136.027  0.00  0.00    +0.000 A 
ATOM      5  C   UNL     1     112.398 125.961 136.442  0.00  0.00    +0.000 A 
ATOM      6  C   UNL     1     112.535 127.368 136.233  0.00  0.00    +0.000 A 
ATOM      7  C   UNL     1     111.822 127.377 135.819  0.00  0.00    +0.000 A 
ATOM      8  C   UNL     1     111.396 126.677 135.716  0.00  0.00    +0.000 A 
ATOM      9  C   UNL     1     112.708 125.230 136.771  0.00  0.00    +0.000 A 
ATOM     10  C   UNL     1     111.231 125.248 135.913  0.00  0.00    +0.000 A 
ATOM     11  C   UNL     1     112.269 124.499 136.667  0.00  0.00    +0.000 A 
ATOM     12  C   UNL     1     111.526 124.508 136.235  0.00  0.00    +0.000 A 
ENDROOT
BRANCH   6  15
ATOM     13  O   UNL     1     112.442 128.187 137.663  0.00  0.00    +0.000 OA
ATOM     14  O   UNL     1     113.293 129.586 137.869  0.00  0.00    +0.000 OA
ATOM     15  C   UNL     1     112.960 128.067 136.336  0.00  0.00    +0.000 A 
ATOM     16  C   UNL     1     112.914 128.477 137.051  0.00  0.00    +0.000 A 
ATOM     17  C   UNL     1     113.432 128.358 135.725  0.00  0.00    +0.000 A 
ATOM     18  C   UNL     1     113.339 129.177 137.154  0.00  0.00    +0.000 A 
ATOM     19  C   UNL     1     113.857 129.056 135.827  0.00  0.00    +0.000 A 
ATOM     20  C   UNL     1     113.811 129.466 136.542  0.00  0.00    +0.000 A 
ENDBRANCH   6  15
BRANCH   7  21
ATOM     21  O   UNL     1     111.534 128.084 135.507  0.00  0.00    +0.000 OA
ATOM     22  C   UNL     1     110.981 128.071 134.895  0.00  0.00    +0.000 C 
ENDBRANCH   7  21
BRANCH   9  23
ATOM     23  O   UNL     1     113.422 125.232 137.184  0.00  0.00    +0.000 OA
ATOM     24  C   UNL     1     114.091 124.883 136.850  0.00  0.00    +0.000 C 
ENDBRANCH   9  23
BRANCH  11  25
ATOM     25  O   UNL     1     112.559 123.793 136.980  0.00  0.00    +0.000 OA
ATOM     26  C   UNL     1     112.047 123.161 137.116  0.00  0.00    +0.000 C 
ENDBRANCH  11  25
TORSDOF 4
ENDMDL
MODEL 8
REMARK VINA RESULT:      -7.6      2.464      3.977
REMARK  Name = 14134167
REMARK  4 active torsions:
REMARK  status: ('A' for Active; 'I' for Inactive)
REMARK    1  A    between atoms: O_2  and  C_12
REMARK    2  A    between atoms: O_3  and  C_14
REMARK    3  A    between atoms: O_4  and  C_17
REMARK    4  A    between atoms: C_11  and  C_16
REMARK                            x       y       z     vdW  Elec       q    Type
REMARK                         _______ _______ _______ _____ _____    ______ ____
ROOT
ATOM      1  O   UNL     1     113.458 126.402 138.900  0.00  0.00    +0.000 OA
ATOM      2  O   UNL     1     110.819 126.189 140.056  0.00  0.00    +0.000 OA
ATOM      3  O   UNL     1     111.138 125.545 138.805  0.00  0.00    +0.000 OA
ATOM      4  C   UNL     1     112.154 126.297 139.473  0.00  0.00    +0.000 A 
ATOM      5  C   UNL     1     112.927 126.583 139.504  0.00  0.00    +0.000 A 
ATOM      6  C   UNL     1     113.217 125.935 138.264  0.00  0.00    +0.000 A 
ATOM      7  C   UNL     1     112.444 125.650 138.232  0.00  0.00    +0.000 A 
ATOM      8  C   UNL     1     111.911 125.831 138.837  0.00  0.00    +0.000 A 
ATOM      9  C   UNL     1     113.191 127.070 140.162  0.00  0.00    +0.000 A 
ATOM     10  C   UNL     1     111.590 126.478 140.096  0.00  0.00    +0.000 A 
ATOM     11  C   UNL     1     112.642 127.261 140.794  0.00  0.00    +0.000 A 
ATOM     12  C   UNL     1     111.836 126.964 140.761  0.00  0.00    +0.000 A 
ENDROOT
BRANCH   6  15
ATOM     13  O   UNL     1     113.535 127.045 137.085  0.00  0.00    +0.000 OA
ATOM     14  O   UNL     1     114.598 126.683 135.876  0.00  0.00    +0.000 OA
ATOM     15  C   UNL     1     113.748 125.754 137.660  0.00  0.00    +0.000 A 
ATOM     16  C   UNL     1     113.907 126.309 137.070  0.00  0.00    +0.000 A 
ATOM     17  C   UNL     1     114.121 125.018 137.644  0.00  0.00    +0.000 A 
ATOM     18  C   UNL     1     114.439 126.128 136.465  0.00  0.00    +0.000 A 
ATOM     19  C   UNL     1     114.652 124.837 137.040  0.00  0.00    +0.000 A 
ATOM     20  C   UNL     1     114.811 125.392 136.451  0.00  0.00    +0.000 A 
ENDBRANCH   6  15
BRANCH   7  21
ATOM     21  O   UNL     1     112.201 125.183 137.596  0.00  0.00    +0.000 OA
ATOM     22  C   UNL     1     111.508 124.739 137.651  0.00  0.00    +0.000 C 
ENDBRANCH   7  21
BRANCH   9  23
ATOM     23  O   UNL     1     113.966 127.351 140.185  0.00  0.00    +0.000 OA
ATOM     24  C   UNL     1     114.492 127.062 140.751  0.00  0.00    +0.000 C 
ENDBRANCH   9  23
BRANCH  11  25
ATOM     25  O   UNL     1     112.886 127.728 141.429  0.00  0.00    +0.000 OA
ATOM     26  C   UNL     1     112.326 128.103 141.905  0.00  0.00    +0.000 C 
ENDBRANCH  11  25
TORSDOF 4
ENDMDL
MODEL 9
REMARK VINA RESULT:      -7.6      2.269      3.141
REMARK  Name = 14134167
REMARK  4 active torsions:
REMARK  status: ('A' for Active; 'I' for Inactive)
REMARK    1  A    between atoms: O_2  and  C_12
REMARK    2  A    between atoms: O_3  and  C_14
REMARK    3  A    between atoms: O_4  and  C_17
REMARK    4  A    between atoms: C_11  and  C_16
REMARK                            x       y       z     vdW  Elec       q    Type
REMARK                         _______ _______ _______ _____ _____    ______ ____
ROOT
ATOM      1  O   UNL     1     111.774 125.650 138.154  0.00  0.00    +0.000 OA
ATOM      2  O   UNL     1     109.044 126.478 137.700  0.00  0.00    +0.000 OA
ATOM      3  O   UNL     1     109.876 126.027 136.612  0.00  0.00    +0.000 OA
ATOM      4  C   UNL     1     110.424 126.059 137.931  0.00  0.00    +0.000 A 
ATOM      5  C   UNL     1     111.057 125.933 138.445  0.00  0.00    +0.000 A 
ATOM      6  C   UNL     1     111.860 125.491 137.349  0.00  0.00    +0.000 A 
ATOM      7  C   UNL     1     111.227 125.617 136.835  0.00  0.00    +0.000 A 
ATOM      8  C   UNL     1     110.508 125.901 137.126  0.00  0.00    +0.000 A 
ATOM      9  C   UNL     1     110.981 126.095 139.286  0.00  0.00    +0.000 A 
ATOM     10  C   UNL     1     109.670 126.355 138.222  0.00  0.00    +0.000 A 
ATOM     11  C   UNL     1     110.236 126.390 139.595  0.00  0.00    +0.000 A 
ATOM     12  C   UNL     1     109.576 126.522 139.059  0.00  0.00    +0.000 A 
ENDROOT
BRANCH   6  15
ATOM     13  O   UNL     1     113.088 126.541 137.015  0.00  0.00    +0.000 OA
ATOM     14  O   UNL     1     114.523 125.974 136.433  0.00  0.00    +0.000 OA
ATOM     15  C   UNL     1     112.577 125.207 137.058  0.00  0.00    +0.000 A 
ATOM     16  C   UNL     1     113.191 125.732 136.891  0.00  0.00    +0.000 A 
ATOM     17  C   UNL     1     112.681 124.398 136.933  0.00  0.00    +0.000 A 
ATOM     18  C   UNL     1     113.909 125.449 136.599  0.00  0.00    +0.000 A 
ATOM     19  C   UNL     1     113.398 124.115 136.642  0.00  0.00    +0.000 A 
ATOM     20  C   UNL     1     114.012 124.640 136.475  0.00  0.00    +0.000 A 
ENDBRANCH   6  15
BRANCH   7  21
ATOM     21  O   UNL     1     111.311 125.459 136.029  0.00  0.00    +0.000 OA
ATOM     22  C   UNL     1     110.643 125.352 135.557  0.00  0.00    +0.000 C 
ENDBRANCH   7  21
BRANCH   9  23
ATOM     23  O   UNL     1     111.619 125.966 139.792  0.00  0.00    +0.000 OA
ATOM     24  C   UNL     1     111.975 126.603 140.176  0.00  0.00    +0.000 C 
ENDBRANCH   9  23
BRANCH  11  25
ATOM     25  O   UNL     1     110.153 126.548 140.401  0.00  0.00    +0.000 OA
ATOM     26  C   UNL     1     109.402 126.586 140.739  0.00  0.00    +0.000 C 
ENDBRANCH  11  25
TORSDOF 4
ENDMDL
MODEL 10
REMARK VINA RESULT:      -7.4     10.808     11.465
REMARK  Name = 14134167
REMARK  4 active torsions:
REMARK  status: ('A' for Active; 'I' for Inactive)
REMARK    1  A    between atoms: O_2  and  C_12
REMARK    2  A    between atoms: O_3  and  C_14
REMARK    3  A    between atoms: O_4  and  C_17
REMARK    4  A    between atoms: C_11  and  C_16
REMARK                            x       y       z     vdW  Elec       q    Type
REMARK                         _______ _______ _______ _____ _____    ______ ____
ROOT
ATOM      1  O   UNL     1     106.690 126.325 146.353  0.00  0.00    +0.000 OA
ATOM      2  O   UNL     1     105.327 125.777 143.866  0.00  0.00    +0.000 OA
ATOM      3  O   UNL     1     105.236 124.866 144.981  0.00  0.00    +0.000 OA
ATOM      4  C   UNL     1     106.017 126.055 145.123  0.00  0.00    +0.000 A 
ATOM      5  C   UNL     1     106.501 126.541 145.581  0.00  0.00    +0.000 A 
ATOM      6  C   UNL     1     106.395 125.622 146.670  0.00  0.00    +0.000 A 
ATOM      7  C   UNL     1     105.910 125.136 146.213  0.00  0.00    +0.000 A 
ATOM      8  C   UNL     1     105.721 125.352 145.439  0.00  0.00    +0.000 A 
ATOM      9  C   UNL     1     106.816 127.275 145.263  0.00  0.00    +0.000 A 
ATOM     10  C   UNL     1     105.812 126.269 144.316  0.00  0.00    +0.000 A 
ATOM     11  C   UNL     1     106.622 127.506 144.458  0.00  0.00    +0.000 A 
ATOM     12  C   UNL     1     106.117 126.999 143.981  0.00  0.00    +0.000 A 
ENDROOT
BRANCH   6  15
ATOM     13  O   UNL     1     107.895 125.028 147.017  0.00  0.00    +0.000 OA
ATOM     14  O   UNL     1     108.273 124.595 148.563  0.00  0.00    +0.000 OA
ATOM     15  C   UNL     1     106.584 125.406 147.443  0.00  0.00    +0.000 A 
ATOM     16  C   UNL     1     107.334 125.109 147.616  0.00  0.00    +0.000 A 
ATOM     17  C   UNL     1     106.024 125.487 148.043  0.00  0.00    +0.000 A 
ATOM     18  C   UNL     1     107.523 124.892 148.390  0.00  0.00    +0.000 A 
ATOM     19  C   UNL     1     106.213 125.270 148.816  0.00  0.00    +0.000 A 
ATOM     20  C   UNL     1     106.962 124.973 148.989  0.00  0.00    +0.000 A 
ENDBRANCH   6  15
BRANCH   7  21
ATOM     21  O   UNL     1     105.614 124.434 146.528  0.00  0.00    +0.000 OA
ATOM     22  C   UNL     1     104.893 124.134 146.263  0.00  0.00    +0.000 C 
ENDBRANCH   7  21
BRANCH   9  23
ATOM     23  O   UNL     1     107.300 127.755 145.728  0.00  0.00    +0.000 OA
ATOM     24  C   UNL     1     107.012 128.473 146.016  0.00  0.00    +0.000 C 
ENDBRANCH   9  23
BRANCH  11  25
ATOM     25  O   UNL     1     106.919 128.209 144.145  0.00  0.00    +0.000 OA
ATOM     26  C   UNL     1     106.942 128.319 143.327  0.00  0.00    +0.000 C 
ENDBRANCH  11  25
TORSDOF 4
ENDMDL
