MODEL 1
REMARK VINA RESULT:      -7.3      0.000      0.000
REMARK  Name = 14162684
REMARK  8 active torsions:
REMARK  status: ('A' for Active; 'I' for Inactive)
REMARK    1  A    between atoms: O_2  and  C_16
REMARK    2  A    between atoms: O_3  and  C_17
REMARK    3  A    between atoms: O_5  and  C_20
REMARK    4  A    between atoms: O_6  and  C_21
REMARK    5  A    between atoms: O_7  and  C_22
REMARK    6  A    between atoms: O_8  and  C_23
REMARK    7  A    between atoms: O_9  and  C_24
REMARK    8  A    between atoms: C_10  and  C_13
REMARK                            x       y       z     vdW  Elec       q    Type
REMARK                         _______ _______ _______ _____ _____    ______ ____
ROOT
ATOM      1  O   UNL     1     112.829 127.539 137.344  0.00  0.00    +0.000 OA
ATOM      2  O   UNL     1     113.800 128.747 135.342  0.00  0.00    +0.000 OA
ATOM      3  C   UNL     1     113.015 127.093 136.633  0.00  0.00    +0.000 C 
ATOM      4  C   UNL     1     113.345 127.500 135.952  0.00  0.00    +0.000 C 
ATOM      5  C   UNL     1     113.292 128.776 136.711  0.00  0.00    +0.000 A 
ATOM      6  C   UNL     1     112.975 128.385 137.364  0.00  0.00    +0.000 A 
ATOM      7  C   UNL     1     113.484 128.348 135.991  0.00  0.00    +0.000 C 
ATOM      8  C   UNL     1     113.428 129.590 136.742  0.00  0.00    +0.000 A 
ATOM      9  C   UNL     1     112.794 128.808 138.050  0.00  0.00    +0.000 A 
ATOM     10  C   UNL     1     113.247 130.012 137.427  0.00  0.00    +0.000 A 
ATOM     11  C   UNL     1     112.930 129.621 138.081  0.00  0.00    +0.000 A 
ENDROOT
BRANCH   3  12
ATOM     12  C   UNL     1     112.879 126.280 136.604  0.00  0.00    +0.000 A 
ATOM     13  C   UNL     1     113.455 125.755 136.875  0.00  0.00    +0.000 A 
ATOM     14  C   UNL     1     112.166 125.992 136.305  0.00  0.00    +0.000 A 
ATOM     15  C   UNL     1     112.030 125.178 136.277  0.00  0.00    +0.000 A 
ATOM     16  C   UNL     1     113.319 124.943 136.846  0.00  0.00    +0.000 A 
ATOM     17  C   UNL     1     112.606 124.654 136.547  0.00  0.00    +0.000 A 
BRANCH  15  18
ATOM     18  O   UNL     1     111.317 124.890 135.978  0.00  0.00    +0.000 OA
ATOM     19  C   UNL     1     110.813 125.391 135.558  0.00  0.00    +0.000 C 
ENDBRANCH  15  18
BRANCH  16  20
ATOM     20  O   UNL     1     113.895 124.418 137.117  0.00  0.00    +0.000 OA
ATOM     21  C   UNL     1     114.654 124.692 137.290  0.00  0.00    +0.000 C 
ENDBRANCH  16  20
BRANCH  17  22
ATOM     22  O   UNL     1     112.470 123.841 136.519  0.00  0.00    +0.000 OA
ATOM     23  C   UNL     1     112.073 123.468 137.139  0.00  0.00    +0.000 C 
ENDBRANCH  17  22
ENDBRANCH   3  12
BRANCH   8  24
ATOM     24  O   UNL     1     113.744 129.981 136.088  0.00  0.00    +0.000 OA
ATOM     25  C   UNL     1     114.557 129.968 135.954  0.00  0.00    +0.000 C 
ENDBRANCH   8  24
BRANCH   9  26
ATOM     26  O   UNL     1     112.478 128.417 138.704  0.00  0.00    +0.000 OA
ATOM     27  C   UNL     1     111.667 128.451 138.852  0.00  0.00    +0.000 C 
ENDBRANCH   9  26
BRANCH  10  28
ATOM     28  O   UNL     1     113.383 130.825 137.459  0.00  0.00    +0.000 OA
ATOM     29  C   UNL     1     112.798 131.350 137.207  0.00  0.00    +0.000 C 
ENDBRANCH  10  28
BRANCH  11  30
ATOM     30  O   UNL     1     112.749 130.044 138.766  0.00  0.00    +0.000 OA
ATOM     31  C   UNL     1     113.316 130.132 139.358  0.00  0.00    +0.000 C 
ENDBRANCH  11  30
TORSDOF 8
ENDMDL
MODEL 2
REMARK VINA RESULT:      -7.3      0.032      1.401
REMARK  Name = 14162684
REMARK  8 active torsions:
REMARK  status: ('A' for Active; 'I' for Inactive)
REMARK    1  A    between atoms: O_2  and  C_16
REMARK    2  A    between atoms: O_3  and  C_17
REMARK    3  A    between atoms: O_5  and  C_20
REMARK    4  A    between atoms: O_6  and  C_21
REMARK    5  A    between atoms: O_7  and  C_22
REMARK    6  A    between atoms: O_8  and  C_23
REMARK    7  A    between atoms: O_9  and  C_24
REMARK    8  A    between atoms: C_10  and  C_13
REMARK                            x       y       z     vdW  Elec       q    Type
REMARK                         _______ _______ _______ _____ _____    ______ ____
ROOT
ATOM      1  O   UNL     1     112.814 127.526 137.342  0.00  0.00    +0.000 OA
ATOM      2  O   UNL     1     113.763 128.726 135.325  0.00  0.00    +0.000 OA
ATOM      3  C   UNL     1     112.992 127.078 136.630  0.00  0.00    +0.000 C 
ATOM      4  C   UNL     1     113.314 127.482 135.944  0.00  0.00    +0.000 C 
ATOM      5  C   UNL     1     113.270 128.761 136.699  0.00  0.00    +0.000 A 
ATOM      6  C   UNL     1     112.961 128.372 137.358  0.00  0.00    +0.000 A 
ATOM      7  C   UNL     1     113.454 128.330 135.979  0.00  0.00    +0.000 C 
ATOM      8  C   UNL     1     113.407 129.575 136.726  0.00  0.00    +0.000 A 
ATOM      9  C   UNL     1     112.788 128.798 138.043  0.00  0.00    +0.000 A 
ATOM     10  C   UNL     1     113.234 129.999 137.412  0.00  0.00    +0.000 A 
ATOM     11  C   UNL     1     112.925 129.610 138.071  0.00  0.00    +0.000 A 
ENDROOT
BRANCH   3  12
ATOM     12  C   UNL     1     112.854 126.265 136.606  0.00  0.00    +0.000 A 
ATOM     13  C   UNL     1     112.139 125.976 136.312  0.00  0.00    +0.000 A 
ATOM     14  C   UNL     1     113.431 125.740 136.876  0.00  0.00    +0.000 A 
ATOM     15  C   UNL     1     113.292 124.927 136.852  0.00  0.00    +0.000 A 
ATOM     16  C   UNL     1     112.001 125.164 136.287  0.00  0.00    +0.000 A 
ATOM     17  C   UNL     1     112.577 124.638 136.557  0.00  0.00    +0.000 A 
BRANCH  15  18
ATOM     18  O   UNL     1     113.869 124.403 137.122  0.00  0.00    +0.000 OA
ATOM     19  C   UNL     1     114.642 124.665 137.239  0.00  0.00    +0.000 C 
ENDBRANCH  15  18
BRANCH  16  20
ATOM     20  O   UNL     1     111.287 124.876 135.993  0.00  0.00    +0.000 OA
ATOM     21  C   UNL     1     110.815 125.353 135.513  0.00  0.00    +0.000 C 
ENDBRANCH  16  20
BRANCH  17  22
ATOM     22  O   UNL     1     112.439 123.826 136.533  0.00  0.00    +0.000 OA
ATOM     23  C   UNL     1     112.049 123.456 137.158  0.00  0.00    +0.000 C 
ENDBRANCH  17  22
ENDBRANCH   3  12
BRANCH   8  24
ATOM     24  O   UNL     1     113.717 129.963 136.067  0.00  0.00    +0.000 OA
ATOM     25  C   UNL     1     114.528 129.947 135.923  0.00  0.00    +0.000 C 
ENDBRANCH   8  24
BRANCH   9  26
ATOM     26  O   UNL     1     112.479 128.409 138.702  0.00  0.00    +0.000 OA
ATOM     27  C   UNL     1     111.670 128.442 138.858  0.00  0.00    +0.000 C 
ENDBRANCH   9  26
BRANCH  10  28
ATOM     28  O   UNL     1     113.371 130.812 137.439  0.00  0.00    +0.000 OA
ATOM     29  C   UNL     1     112.786 131.337 137.188  0.00  0.00    +0.000 C 
ENDBRANCH  10  28
BRANCH  11  30
ATOM     30  O   UNL     1     112.753 130.036 138.756  0.00  0.00    +0.000 OA
ATOM     31  C   UNL     1     113.326 130.126 139.342  0.00  0.00    +0.000 C 
ENDBRANCH  11  30
TORSDOF 8
ENDMDL
MODEL 3
REMARK VINA RESULT:      -7.2      0.540      1.897
REMARK  Name = 14162684
REMARK  8 active torsions:
REMARK  status: ('A' for Active; 'I' for Inactive)
REMARK    1  A    between atoms: O_2  and  C_16
REMARK    2  A    between atoms: O_3  and  C_17
REMARK    3  A    between atoms: O_5  and  C_20
REMARK    4  A    between atoms: O_6  and  C_21
REMARK    5  A    between atoms: O_7  and  C_22
REMARK    6  A    between atoms: O_8  and  C_23
REMARK    7  A    between atoms: O_9  and  C_24
REMARK    8  A    between atoms: C_10  and  C_13
REMARK                            x       y       z     vdW  Elec       q    Type
REMARK                         _______ _______ _______ _____ _____    ______ ____
ROOT
ATOM      1  O   UNL     1     113.287 127.718 136.493  0.00  0.00    +0.000 OA
ATOM      2  O   UNL     1     112.517 128.645 138.720  0.00  0.00    +0.000 OA
ATOM      3  C   UNL     1     112.916 127.192 137.063  0.00  0.00    +0.000 C 
ATOM      4  C   UNL     1     112.654 127.503 137.819  0.00  0.00    +0.000 C 
ATOM      5  C   UNL     1     113.138 128.847 137.414  0.00  0.00    +0.000 A 
ATOM      6  C   UNL     1     113.391 128.548 136.688  0.00  0.00    +0.000 A 
ATOM      7  C   UNL     1     112.766 128.337 137.996  0.00  0.00    +0.000 C 
ATOM      8  C   UNL     1     113.243 129.647 137.589  0.00  0.00    +0.000 A 
ATOM      9  C   UNL     1     113.747 129.049 136.137  0.00  0.00    +0.000 A 
ATOM     10  C   UNL     1     113.600 130.147 137.038  0.00  0.00    +0.000 A 
ATOM     11  C   UNL     1     113.852 129.847 136.312  0.00  0.00    +0.000 A 
ENDROOT
BRANCH   3  12
ATOM     12  C   UNL     1     112.813 126.393 136.885  0.00  0.00    +0.000 A 
ATOM     13  C   UNL     1     113.403 125.848 137.075  0.00  0.00    +0.000 A 
ATOM     14  C   UNL     1     112.120 126.139 136.517  0.00  0.00    +0.000 A 
ATOM     15  C   UNL     1     112.017 125.339 136.339  0.00  0.00    +0.000 A 
ATOM     16  C   UNL     1     113.300 125.050 136.897  0.00  0.00    +0.000 A 
ATOM     17  C   UNL     1     112.607 124.794 136.529  0.00  0.00    +0.000 A 
BRANCH  15  18
ATOM     18  O   UNL     1     111.324 125.085 135.971  0.00  0.00    +0.000 OA
ATOM     19  C   UNL     1     110.886 125.609 135.508  0.00  0.00    +0.000 C 
ENDBRANCH  15  18
BRANCH  16  20
ATOM     20  O   UNL     1     113.890 124.505 137.088  0.00  0.00    +0.000 OA
ATOM     21  C   UNL     1     114.655 124.766 137.250  0.00  0.00    +0.000 C 
ENDBRANCH  16  20
BRANCH  17  22
ATOM     22  O   UNL     1     112.504 123.996 136.351  0.00  0.00    +0.000 OA
ATOM     23  C   UNL     1     112.134 123.497 136.895  0.00  0.00    +0.000 C 
ENDBRANCH  17  22
ENDBRANCH   3  12
BRANCH   8  24
ATOM     24  O   UNL     1     112.991 129.947 138.316  0.00  0.00    +0.000 OA
ATOM     25  C   UNL     1     113.465 129.860 138.984  0.00  0.00    +0.000 C 
ENDBRANCH   8  24
BRANCH   9  26
ATOM     26  O   UNL     1     113.999 128.749 135.411  0.00  0.00    +0.000 OA
ATOM     27  C   UNL     1     113.561 128.898 134.728  0.00  0.00    +0.000 C 
ENDBRANCH   9  26
BRANCH  10  28
ATOM     28  O   UNL     1     113.704 130.947 137.214  0.00  0.00    +0.000 OA
ATOM     29  C   UNL     1     113.118 131.492 137.016  0.00  0.00    +0.000 C 
ENDBRANCH  10  28
BRANCH  11  30
ATOM     30  O   UNL     1     114.209 130.348 135.761  0.00  0.00    +0.000 OA
ATOM     31  C   UNL     1     115.025 130.459 135.772  0.00  0.00    +0.000 C 
ENDBRANCH  11  30
TORSDOF 8
ENDMDL
MODEL 4
REMARK VINA RESULT:      -7.2      0.555      2.361
REMARK  Name = 14162684
REMARK  8 active torsions:
REMARK  status: ('A' for Active; 'I' for Inactive)
REMARK    1  A    between atoms: O_2  and  C_16
REMARK    2  A    between atoms: O_3  and  C_17
REMARK    3  A    between atoms: O_5  and  C_20
REMARK    4  A    between atoms: O_6  and  C_21
REMARK    5  A    between atoms: O_7  and  C_22
REMARK    6  A    between atoms: O_8  and  C_23
REMARK    7  A    between atoms: O_9  and  C_24
REMARK    8  A    between atoms: C_10  and  C_13
REMARK                            x       y       z     vdW  Elec       q    Type
REMARK                         _______ _______ _______ _____ _____    ______ ____
ROOT
ATOM      1  O   UNL     1     113.326 127.744 136.505  0.00  0.00    +0.000 OA
ATOM      2  O   UNL     1     112.552 128.673 138.730  0.00  0.00    +0.000 OA
ATOM      3  C   UNL     1     112.951 127.219 137.074  0.00  0.00    +0.000 C 
ATOM      4  C   UNL     1     112.688 127.532 137.829  0.00  0.00    +0.000 C 
ATOM      5  C   UNL     1     113.178 128.874 137.426  0.00  0.00    +0.000 A 
ATOM      6  C   UNL     1     113.431 128.574 136.700  0.00  0.00    +0.000 A 
ATOM      7  C   UNL     1     112.802 128.365 138.007  0.00  0.00    +0.000 C 
ATOM      8  C   UNL     1     113.285 129.674 137.602  0.00  0.00    +0.000 A 
ATOM      9  C   UNL     1     113.791 129.074 136.151  0.00  0.00    +0.000 A 
ATOM     10  C   UNL     1     113.645 130.172 137.052  0.00  0.00    +0.000 A 
ATOM     11  C   UNL     1     113.898 129.872 136.327  0.00  0.00    +0.000 A 
ENDROOT
BRANCH   3  12
ATOM     12  C   UNL     1     112.845 126.421 136.895  0.00  0.00    +0.000 A 
ATOM     13  C   UNL     1     112.157 126.171 136.516  0.00  0.00    +0.000 A 
ATOM     14  C   UNL     1     113.428 125.872 137.096  0.00  0.00    +0.000 A 
ATOM     15  C   UNL     1     113.322 125.074 136.917  0.00  0.00    +0.000 A 
ATOM     16  C   UNL     1     112.051 125.373 136.337  0.00  0.00    +0.000 A 
ATOM     17  C   UNL     1     112.633 124.823 136.538  0.00  0.00    +0.000 A 
BRANCH  15  18
ATOM     18  O   UNL     1     113.905 124.525 137.117  0.00  0.00    +0.000 OA
ATOM     19  C   UNL     1     114.671 124.781 137.285  0.00  0.00    +0.000 C 
ENDBRANCH  15  18
BRANCH  16  20
ATOM     20  O   UNL     1     111.362 125.123 135.958  0.00  0.00    +0.000 OA
ATOM     21  C   UNL     1     110.928 125.653 135.499  0.00  0.00    +0.000 C 
ENDBRANCH  16  20
BRANCH  17  22
ATOM     22  O   UNL     1     112.527 124.026 136.359  0.00  0.00    +0.000 OA
ATOM     23  C   UNL     1     112.145 123.531 136.897  0.00  0.00    +0.000 C 
ENDBRANCH  17  22
ENDBRANCH   3  12
BRANCH   8  24
ATOM     24  O   UNL     1     113.032 129.974 138.328  0.00  0.00    +0.000 OA
ATOM     25  C   UNL     1     113.505 129.886 138.997  0.00  0.00    +0.000 C 
ENDBRANCH   8  24
BRANCH   9  26
ATOM     26  O   UNL     1     114.044 128.774 135.425  0.00  0.00    +0.000 OA
ATOM     27  C   UNL     1     113.608 128.924 134.741  0.00  0.00    +0.000 C 
ENDBRANCH   9  26
BRANCH  10  28
ATOM     28  O   UNL     1     113.752 130.971 137.229  0.00  0.00    +0.000 OA
ATOM     29  C   UNL     1     113.169 131.519 137.027  0.00  0.00    +0.000 C 
ENDBRANCH  10  28
BRANCH  11  30
ATOM     30  O   UNL     1     114.258 130.371 135.777  0.00  0.00    +0.000 OA
ATOM     31  C   UNL     1     115.075 130.477 135.788  0.00  0.00    +0.000 C 
ENDBRANCH  11  30
TORSDOF 8
ENDMDL
MODEL 5
REMARK VINA RESULT:      -7.0     10.258     12.024
REMARK  Name = 14162684
REMARK  8 active torsions:
REMARK  status: ('A' for Active; 'I' for Inactive)
REMARK    1  A    between atoms: O_2  and  C_16
REMARK    2  A    between atoms: O_3  and  C_17
REMARK    3  A    between atoms: O_5  and  C_20
REMARK    4  A    between atoms: O_6  and  C_21
REMARK    5  A    between atoms: O_7  and  C_22
REMARK    6  A    between atoms: O_8  and  C_23
REMARK    7  A    between atoms: O_9  and  C_24
REMARK    8  A    between atoms: C_10  and  C_13
REMARK                            x       y       z     vdW  Elec       q    Type
REMARK                         _______ _______ _______ _____ _____    ______ ____
ROOT
ATOM      1  O   UNL     1     103.218 132.168 141.161  0.00  0.00    +0.000 OA
ATOM      2  O   UNL     1     100.911 132.816 141.980  0.00  0.00    +0.000 OA
ATOM      3  C   UNL     1     102.700 131.563 141.484  0.00  0.00    +0.000 C 
ATOM      4  C   UNL     1     101.917 131.779 141.762  0.00  0.00    +0.000 C 
ATOM      5  C   UNL     1     102.193 133.190 141.389  0.00  0.00    +0.000 A 
ATOM      6  C   UNL     1     102.945 132.982 141.122  0.00  0.00    +0.000 A 
ATOM      7  C   UNL     1     101.662 132.599 141.714  0.00  0.00    +0.000 C 
ATOM      8  C   UNL     1     101.942 133.975 141.346  0.00  0.00    +0.000 A 
ATOM      9  C   UNL     1     103.447 133.559 140.811  0.00  0.00    +0.000 A 
ATOM     10  C   UNL     1     102.444 134.552 141.036  0.00  0.00    +0.000 A 
ATOM     11  C   UNL     1     103.197 134.343 140.768  0.00  0.00    +0.000 A 
ENDROOT
BRANCH   3  12
ATOM     12  C   UNL     1     102.953 130.778 141.525  0.00  0.00    +0.000 A 
ATOM     13  C   UNL     1     103.325 130.501 142.208  0.00  0.00    +0.000 A 
ATOM     14  C   UNL     1     102.835 130.272 140.885  0.00  0.00    +0.000 A 
ATOM     15  C   UNL     1     103.088 129.487 140.928  0.00  0.00    +0.000 A 
ATOM     16  C   UNL     1     103.578 129.718 142.250  0.00  0.00    +0.000 A 
ATOM     17  C   UNL     1     103.460 129.210 141.610  0.00  0.00    +0.000 A 
BRANCH  15  18
ATOM     18  O   UNL     1     102.969 128.981 140.287  0.00  0.00    +0.000 OA
ATOM     19  C   UNL     1     102.395 129.157 139.723  0.00  0.00    +0.000 C 
ENDBRANCH  15  18
BRANCH  16  20
ATOM     20  O   UNL     1     103.950 129.440 142.932  0.00  0.00    +0.000 OA
ATOM     21  C   UNL     1     103.964 129.906 143.613  0.00  0.00    +0.000 C 
ENDBRANCH  16  20
BRANCH  17  22
ATOM     22  O   UNL     1     103.713 128.427 141.652  0.00  0.00    +0.000 OA
ATOM     23  C   UNL     1     104.489 128.233 141.450  0.00  0.00    +0.000 C 
ENDBRANCH  17  22
ENDBRANCH   3  12
BRANCH   8  24
ATOM     24  O   UNL     1     101.190 134.184 141.614  0.00  0.00    +0.000 OA
ATOM     25  C   UNL     1     101.059 134.309 142.418  0.00  0.00    +0.000 C 
ENDBRANCH   8  24
BRANCH   9  26
ATOM     26  O   UNL     1     104.199 133.351 140.544  0.00  0.00    +0.000 OA
ATOM     27  C   UNL     1     104.335 133.243 139.737  0.00  0.00    +0.000 C 
ENDBRANCH   9  26
BRANCH  10  28
ATOM     28  O   UNL     1     102.193 135.337 140.993  0.00  0.00    +0.000 OA
ATOM     29  C   UNL     1     101.859 135.625 140.296  0.00  0.00    +0.000 C 
ENDBRANCH  10  28
BRANCH  11  30
ATOM     30  O   UNL     1     103.698 134.921 140.458  0.00  0.00    +0.000 OA
ATOM     31  C   UNL     1     104.219 135.325 140.952  0.00  0.00    +0.000 C 
ENDBRANCH  11  30
TORSDOF 8
ENDMDL
MODEL 6
REMARK VINA RESULT:      -6.9      1.619      5.040
REMARK  Name = 14162684
REMARK  8 active torsions:
REMARK  status: ('A' for Active; 'I' for Inactive)
REMARK    1  A    between atoms: O_2  and  C_16
REMARK    2  A    between atoms: O_3  and  C_17
REMARK    3  A    between atoms: O_5  and  C_20
REMARK    4  A    between atoms: O_6  and  C_21
REMARK    5  A    between atoms: O_7  and  C_22
REMARK    6  A    between atoms: O_8  and  C_23
REMARK    7  A    between atoms: O_9  and  C_24
REMARK    8  A    between atoms: C_10  and  C_13
REMARK                            x       y       z     vdW  Elec       q    Type
REMARK                         _______ _______ _______ _____ _____    ______ ____
ROOT
ATOM      1  O   UNL     1     112.318 126.815 138.364  0.00  0.00    +0.000 OA
ATOM      2  O   UNL     1     114.420 125.414 138.190  0.00  0.00    +0.000 OA
ATOM      3  C   UNL     1     113.021 127.054 138.797  0.00  0.00    +0.000 C 
ATOM      4  C   UNL     1     113.735 126.581 138.740  0.00  0.00    +0.000 C 
ATOM      5  C   UNL     1     113.026 125.651 137.825  0.00  0.00    +0.000 A 
ATOM      6  C   UNL     1     112.339 126.106 137.880  0.00  0.00    +0.000 A 
ATOM      7  C   UNL     1     113.737 125.874 138.251  0.00  0.00    +0.000 C 
ATOM      8  C   UNL     1     113.034 124.971 137.357  0.00  0.00    +0.000 A 
ATOM      9  C   UNL     1     111.662 125.880 137.466  0.00  0.00    +0.000 A 
ATOM     10  C   UNL     1     112.356 124.747 136.943  0.00  0.00    +0.000 A 
ATOM     11  C   UNL     1     111.670 125.202 136.998  0.00  0.00    +0.000 A 
ENDROOT
BRANCH   3  12
ATOM     12  C   UNL     1     113.009 127.734 139.265  0.00  0.00    +0.000 A 
ATOM     13  C   UNL     1     112.835 127.678 140.069  0.00  0.00    +0.000 A 
ATOM     14  C   UNL     1     113.172 128.469 138.928  0.00  0.00    +0.000 A 
ATOM     15  C   UNL     1     113.161 129.149 139.396  0.00  0.00    +0.000 A 
ATOM     16  C   UNL     1     112.823 128.357 140.537  0.00  0.00    +0.000 A 
ATOM     17  C   UNL     1     112.986 129.093 140.201  0.00  0.00    +0.000 A 
BRANCH  15  18
ATOM     18  O   UNL     1     113.323 129.884 139.059  0.00  0.00    +0.000 OA
ATOM     19  C   UNL     1     113.178 130.012 138.257  0.00  0.00    +0.000 C 
ENDBRANCH  15  18
BRANCH  16  20
ATOM     20  O   UNL     1     112.649 128.301 141.341  0.00  0.00    +0.000 OA
ATOM     21  C   UNL     1     112.140 127.712 141.613  0.00  0.00    +0.000 C 
ENDBRANCH  16  20
BRANCH  17  22
ATOM     22  O   UNL     1     112.975 129.772 140.668  0.00  0.00    +0.000 OA
ATOM     23  C   UNL     1     113.663 130.023 141.046  0.00  0.00    +0.000 C 
ENDBRANCH  17  22
ENDBRANCH   3  12
BRANCH   8  24
ATOM     24  O   UNL     1     113.721 124.517 137.302  0.00  0.00    +0.000 OA
ATOM     25  C   UNL     1     114.335 124.756 136.807  0.00  0.00    +0.000 C 
ENDBRANCH   8  24
BRANCH   9  26
ATOM     26  O   UNL     1     110.976 126.335 137.521  0.00  0.00    +0.000 OA
ATOM     27  C   UNL     1     110.362 126.098 138.018  0.00  0.00    +0.000 C 
ENDBRANCH   9  26
BRANCH  10  28
ATOM     28  O   UNL     1     112.365 124.067 136.475  0.00  0.00    +0.000 OA
ATOM     29  C   UNL     1     112.154 123.340 136.801  0.00  0.00    +0.000 C 
ENDBRANCH  10  28
BRANCH  11  30
ATOM     30  O   UNL     1     110.993 124.977 136.584  0.00  0.00    +0.000 OA
ATOM     31  C   UNL     1     110.865 125.254 135.818  0.00  0.00    +0.000 C 
ENDBRANCH  11  30
TORSDOF 8
ENDMDL
MODEL 7
REMARK VINA RESULT:      -6.7      0.957      4.884
REMARK  Name = 14162684
REMARK  8 active torsions:
REMARK  status: ('A' for Active; 'I' for Inactive)
REMARK    1  A    between atoms: O_2  and  C_16
REMARK    2  A    between atoms: O_3  and  C_17
REMARK    3  A    between atoms: O_5  and  C_20
REMARK    4  A    between atoms: O_6  and  C_21
REMARK    5  A    between atoms: O_7  and  C_22
REMARK    6  A    between atoms: O_8  and  C_23
REMARK    7  A    between atoms: O_9  and  C_24
REMARK    8  A    between atoms: C_10  and  C_13
REMARK                            x       y       z     vdW  Elec       q    Type
REMARK                         _______ _______ _______ _____ _____    ______ ____
ROOT
ATOM      1  O   UNL     1     112.540 127.550 136.444  0.00  0.00    +0.000 OA
ATOM      2  O   UNL     1     114.315 125.833 137.000  0.00  0.00    +0.000 OA
ATOM      3  C   UNL     1     113.329 127.815 136.659  0.00  0.00    +0.000 C 
ATOM      4  C   UNL     1     113.934 127.234 136.848  0.00  0.00    +0.000 C 
ATOM      5  C   UNL     1     112.946 126.152 136.604  0.00  0.00    +0.000 A 
ATOM      6  C   UNL     1     112.366 126.710 136.422  0.00  0.00    +0.000 A 
ATOM      7  C   UNL     1     113.741 126.397 136.820  0.00  0.00    +0.000 C 
ATOM      8  C   UNL     1     112.767 125.346 136.579  0.00  0.00    +0.000 A 
ATOM      9  C   UNL     1     111.607 126.461 136.216  0.00  0.00    +0.000 A 
ATOM     10  C   UNL     1     112.008 125.100 136.372  0.00  0.00    +0.000 A 
ATOM     11  C   UNL     1     111.427 125.657 136.191  0.00  0.00    +0.000 A 
ENDROOT
BRANCH   3  12
ATOM     12  C   UNL     1     113.506 128.620 136.683  0.00  0.00    +0.000 A 
ATOM     13  C   UNL     1     113.397 129.046 137.381  0.00  0.00    +0.000 A 
ATOM     14  C   UNL     1     113.791 129.001 136.008  0.00  0.00    +0.000 A 
ATOM     15  C   UNL     1     113.967 129.807 136.033  0.00  0.00    +0.000 A 
ATOM     16  C   UNL     1     113.573 129.850 137.406  0.00  0.00    +0.000 A 
ATOM     17  C   UNL     1     113.858 130.232 136.732  0.00  0.00    +0.000 A 
BRANCH  15  18
ATOM     18  O   UNL     1     114.252 130.187 135.358  0.00  0.00    +0.000 OA
ATOM     19  C   UNL     1     114.631 129.752 134.769  0.00  0.00    +0.000 C 
ENDBRANCH  15  18
BRANCH  16  20
ATOM     20  O   UNL     1     113.465 130.275 138.104  0.00  0.00    +0.000 OA
ATOM     21  C   UNL     1     113.425 129.879 138.827  0.00  0.00    +0.000 C 
ENDBRANCH  16  20
BRANCH  17  22
ATOM     22  O   UNL     1     114.035 131.037 136.756  0.00  0.00    +0.000 OA
ATOM     23  C   UNL     1     113.440 131.593 136.620  0.00  0.00    +0.000 C 
ENDBRANCH  17  22
ENDBRANCH   3  12
BRANCH   8  24
ATOM     24  O   UNL     1     113.348 124.789 136.760  0.00  0.00    +0.000 OA
ATOM     25  C   UNL     1     113.932 124.607 136.208  0.00  0.00    +0.000 C 
ENDBRANCH   8  24
BRANCH   9  26
ATOM     26  O   UNL     1     111.026 127.019 136.034  0.00  0.00    +0.000 OA
ATOM     27  C   UNL     1     110.461 127.226 136.599  0.00  0.00    +0.000 C 
ENDBRANCH   9  26
BRANCH  10  28
ATOM     28  O   UNL     1     111.829 124.294 136.348  0.00  0.00    +0.000 OA
ATOM     29  C   UNL     1     111.639 123.893 137.043  0.00  0.00    +0.000 C 
ENDBRANCH  10  28
BRANCH  11  30
ATOM     30  O   UNL     1     110.668 125.409 135.985  0.00  0.00    +0.000 OA
ATOM     31  C   UNL     1     110.462 125.327 135.191  0.00  0.00    +0.000 C 
ENDBRANCH  11  30
TORSDOF 8
ENDMDL
MODEL 8
REMARK VINA RESULT:      -6.7      1.068      2.588
REMARK  Name = 14162684
REMARK  8 active torsions:
REMARK  status: ('A' for Active; 'I' for Inactive)
REMARK    1  A    between atoms: O_2  and  C_16
REMARK    2  A    between atoms: O_3  and  C_17
REMARK    3  A    between atoms: O_5  and  C_20
REMARK    4  A    between atoms: O_6  and  C_21
REMARK    5  A    between atoms: O_7  and  C_22
REMARK    6  A    between atoms: O_8  and  C_23
REMARK    7  A    between atoms: O_9  and  C_24
REMARK    8  A    between atoms: C_10  and  C_13
REMARK                            x       y       z     vdW  Elec       q    Type
REMARK                         _______ _______ _______ _____ _____    ______ ____
ROOT
ATOM      1  O   UNL     1     112.991 127.625 137.724  0.00  0.00    +0.000 OA
ATOM      2  O   UNL     1     113.167 127.706 140.249  0.00  0.00    +0.000 OA
ATOM      3  C   UNL     1     112.897 126.900 138.177  0.00  0.00    +0.000 C 
ATOM      4  C   UNL     1     112.956 126.924 139.033  0.00  0.00    +0.000 C 
ATOM      5  C   UNL     1     113.199 128.387 138.958  0.00  0.00    +0.000 A 
ATOM      6  C   UNL     1     113.143 128.364 138.135  0.00  0.00    +0.000 A 
ATOM      7  C   UNL     1     113.108 127.674 139.427  0.00  0.00    +0.000 C 
ATOM      8  C   UNL     1     113.346 129.104 139.341  0.00  0.00    +0.000 A 
ATOM      9  C   UNL     1     113.232 129.057 137.696  0.00  0.00    +0.000 A 
ATOM     10  C   UNL     1     113.435 129.796 138.901  0.00  0.00    +0.000 A 
ATOM     11  C   UNL     1     113.378 129.772 138.078  0.00  0.00    +0.000 A 
ENDROOT
BRANCH   3  12
ATOM     12  C   UNL     1     112.751 126.185 137.791  0.00  0.00    +0.000 A 
ATOM     13  C   UNL     1     111.989 126.005 137.531  0.00  0.00    +0.000 A 
ATOM     14  C   UNL     1     113.366 125.650 137.666  0.00  0.00    +0.000 A 
ATOM     15  C   UNL     1     113.219 124.936 137.280  0.00  0.00    +0.000 A 
ATOM     16  C   UNL     1     111.842 125.292 137.145  0.00  0.00    +0.000 A 
ATOM     17  C   UNL     1     112.457 124.756 137.020  0.00  0.00    +0.000 A 
BRANCH  15  18
ATOM     18  O   UNL     1     113.835 124.401 137.155  0.00  0.00    +0.000 OA
ATOM     19  C   UNL     1     114.618 124.657 137.196  0.00  0.00    +0.000 C 
ENDBRANCH  15  18
BRANCH  16  20
ATOM     20  O   UNL     1     111.080 125.112 136.885  0.00  0.00    +0.000 OA
ATOM     21  C   UNL     1     110.564 125.718 136.669  0.00  0.00    +0.000 C 
ENDBRANCH  16  20
BRANCH  17  22
ATOM     22  O   UNL     1     112.311 124.042 136.635  0.00  0.00    +0.000 OA
ATOM     23  C   UNL     1     112.073 123.381 137.068  0.00  0.00    +0.000 C 
ENDBRANCH  17  22
ENDBRANCH   3  12
BRANCH   8  24
ATOM     24  O   UNL     1     113.403 129.127 140.164  0.00  0.00    +0.000 OA
ATOM     25  C   UNL     1     112.719 129.147 140.624  0.00  0.00    +0.000 C 
ENDBRANCH   8  24
BRANCH   9  26
ATOM     26  O   UNL     1     113.175 129.033 136.873  0.00  0.00    +0.000 OA
ATOM     27  C   UNL     1     113.859 129.044 136.411  0.00  0.00    +0.000 C 
ENDBRANCH   9  26
BRANCH  10  28
ATOM     28  O   UNL     1     113.581 130.512 139.284  0.00  0.00    +0.000 OA
ATOM     29  C   UNL     1     114.357 130.737 139.455  0.00  0.00    +0.000 C 
ENDBRANCH  10  28
BRANCH  11  30
ATOM     30  O   UNL     1     113.468 130.465 137.639  0.00  0.00    +0.000 OA
ATOM     31  C   UNL     1     112.811 130.931 137.464  0.00  0.00    +0.000 C 
ENDBRANCH  11  30
TORSDOF 8
ENDMDL
MODEL 9
REMARK VINA RESULT:      -6.7      9.422     11.496
REMARK  Name = 14162684
REMARK  8 active torsions:
REMARK  status: ('A' for Active; 'I' for Inactive)
REMARK    1  A    between atoms: O_2  and  C_16
REMARK    2  A    between atoms: O_3  and  C_17
REMARK    3  A    between atoms: O_5  and  C_20
REMARK    4  A    between atoms: O_6  and  C_21
REMARK    5  A    between atoms: O_7  and  C_22
REMARK    6  A    between atoms: O_8  and  C_23
REMARK    7  A    between atoms: O_9  and  C_24
REMARK    8  A    between atoms: C_10  and  C_13
REMARK                            x       y       z     vdW  Elec       q    Type
REMARK                         _______ _______ _______ _____ _____    ______ ____
ROOT
ATOM      1  O   UNL     1     106.568 126.351 145.554  0.00  0.00    +0.000 OA
ATOM      2  O   UNL     1     105.322 124.611 144.201  0.00  0.00    +0.000 OA
ATOM      3  C   UNL     1     106.253 125.656 145.950  0.00  0.00    +0.000 C 
ATOM      4  C   UNL     1     105.830 125.064 145.494  0.00  0.00    +0.000 C 
ATOM      5  C   UNL     1     106.050 125.875 144.269  0.00  0.00    +0.000 A 
ATOM      6  C   UNL     1     106.456 126.444 144.708  0.00  0.00    +0.000 A 
ATOM      7  C   UNL     1     105.727 125.174 144.647  0.00  0.00    +0.000 C 
ATOM      8  C   UNL     1     105.948 125.975 143.456  0.00  0.00    +0.000 A 
ATOM      9  C   UNL     1     106.761 127.113 144.333  0.00  0.00    +0.000 A 
ATOM     10  C   UNL     1     106.254 126.644 143.082  0.00  0.00    +0.000 A 
ATOM     11  C   UNL     1     106.660 127.213 143.521  0.00  0.00    +0.000 A 
ENDROOT
BRANCH   3  12
ATOM     12  C   UNL     1     106.356 125.558 146.763  0.00  0.00    +0.000 A 
ATOM     13  C   UNL     1     105.754 125.777 147.284  0.00  0.00    +0.000 A 
ATOM     14  C   UNL     1     107.059 125.241 147.054  0.00  0.00    +0.000 A 
ATOM     15  C   UNL     1     107.161 125.144 147.868  0.00  0.00    +0.000 A 
ATOM     16  C   UNL     1     105.857 125.679 148.096  0.00  0.00    +0.000 A 
ATOM     17  C   UNL     1     106.560 125.363 148.389  0.00  0.00    +0.000 A 
BRANCH  15  18
ATOM     18  O   UNL     1     107.865 124.827 148.159  0.00  0.00    +0.000 OA
ATOM     19  C   UNL     1     108.583 125.013 147.797  0.00  0.00    +0.000 C 
ENDBRANCH  15  18
BRANCH  16  20
ATOM     20  O   UNL     1     105.256 125.898 148.617  0.00  0.00    +0.000 OA
ATOM     21  C   UNL     1     104.723 126.492 148.406  0.00  0.00    +0.000 C 
ENDBRANCH  16  20
BRANCH  17  22
ATOM     22  O   UNL     1     106.662 125.265 149.201  0.00  0.00    +0.000 OA
ATOM     23  C   UNL     1     106.443 124.556 149.561  0.00  0.00    +0.000 C 
ENDBRANCH  17  22
ENDBRANCH   3  12
BRANCH   8  24
ATOM     24  O   UNL     1     105.542 125.407 143.018  0.00  0.00    +0.000 OA
ATOM     25  C   UNL     1     105.937 124.737 142.745  0.00  0.00    +0.000 C 
ENDBRANCH   8  24
BRANCH   9  26
ATOM     26  O   UNL     1     107.168 127.681 144.771  0.00  0.00    +0.000 OA
ATOM     27  C   UNL     1     106.784 128.371 145.010  0.00  0.00    +0.000 C 
ENDBRANCH   9  26
BRANCH  10  28
ATOM     28  O   UNL     1     106.152 126.745 142.269  0.00  0.00    +0.000 OA
ATOM     29  C   UNL     1     105.496 127.156 141.984  0.00  0.00    +0.000 C 
ENDBRANCH  10  28
BRANCH  11  30
ATOM     30  O   UNL     1     106.965 127.882 143.146  0.00  0.00    +0.000 OA
ATOM     31  C   UNL     1     107.729 127.869 142.835  0.00  0.00    +0.000 C 
ENDBRANCH  11  30
TORSDOF 8
ENDMDL
MODEL 10
REMARK VINA RESULT:      -6.6      1.056      4.899
REMARK  Name = 14162684
REMARK  8 active torsions:
REMARK  status: ('A' for Active; 'I' for Inactive)
REMARK    1  A    between atoms: O_2  and  C_16
REMARK    2  A    between atoms: O_3  and  C_17
REMARK    3  A    between atoms: O_5  and  C_20
REMARK    4  A    between atoms: O_6  and  C_21
REMARK    5  A    between atoms: O_7  and  C_22
REMARK    6  A    between atoms: O_8  and  C_23
REMARK    7  A    between atoms: O_9  and  C_24
REMARK    8  A    between atoms: C_10  and  C_13
REMARK                            x       y       z     vdW  Elec       q    Type
REMARK                         _______ _______ _______ _____ _____    ______ ____
ROOT
ATOM      1  O   UNL     1     113.382 127.336 136.718  0.00  0.00    +0.000 OA
ATOM      2  O   UNL     1     111.003 127.189 135.863  0.00  0.00    +0.000 OA
ATOM      3  C   UNL     1     112.993 128.047 136.431  0.00  0.00    +0.000 C 
ATOM      4  C   UNL     1     112.186 128.000 136.140  0.00  0.00    +0.000 C 
ATOM      5  C   UNL     1     112.184 126.544 136.431  0.00  0.00    +0.000 A 
ATOM      6  C   UNL     1     112.959 126.589 136.711  0.00  0.00    +0.000 A 
ATOM      7  C   UNL     1     111.778 127.243 136.140  0.00  0.00    +0.000 C 
ATOM      8  C   UNL     1     111.787 125.820 136.429  0.00  0.00    +0.000 A 
ATOM      9  C   UNL     1     113.337 125.910 136.988  0.00  0.00    +0.000 A 
ATOM     10  C   UNL     1     112.166 125.142 136.706  0.00  0.00    +0.000 A 
ATOM     11  C   UNL     1     112.941 125.187 136.985  0.00  0.00    +0.000 A 
ENDROOT
BRANCH   3  12
ATOM     12  C   UNL     1     113.391 128.770 136.434  0.00  0.00    +0.000 A 
ATOM     13  C   UNL     1     113.839 128.997 135.779  0.00  0.00    +0.000 A 
ATOM     14  C   UNL     1     113.342 129.265 137.092  0.00  0.00    +0.000 A 
ATOM     15  C   UNL     1     113.741 129.988 137.094  0.00  0.00    +0.000 A 
ATOM     16  C   UNL     1     114.237 129.718 135.782  0.00  0.00    +0.000 A 
ATOM     17  C   UNL     1     114.189 130.215 136.440  0.00  0.00    +0.000 A 
BRANCH  15  18
ATOM     18  O   UNL     1     113.691 130.483 137.752  0.00  0.00    +0.000 OA
ATOM     19  C   UNL     1     113.562 130.162 138.502  0.00  0.00    +0.000 C 
ENDBRANCH  15  18
BRANCH  16  20
ATOM     20  O   UNL     1     114.685 129.945 135.128  0.00  0.00    +0.000 OA
ATOM     21  C   UNL     1     114.985 129.373 134.614  0.00  0.00    +0.000 C 
ENDBRANCH  16  20
BRANCH  17  22
ATOM     22  O   UNL     1     114.587 130.936 136.443  0.00  0.00    +0.000 OA
ATOM     23  C   UNL     1     114.203 131.620 136.185  0.00  0.00    +0.000 C 
ENDBRANCH  17  22
ENDBRANCH   3  12
BRANCH   8  24
ATOM     24  O   UNL     1     111.012 125.775 136.150  0.00  0.00    +0.000 OA
ATOM     25  C   UNL     1     110.869 125.710 135.340  0.00  0.00    +0.000 C 
ENDBRANCH   8  24
BRANCH   9  26
ATOM     26  O   UNL     1     114.112 125.955 137.267  0.00  0.00    +0.000 OA
ATOM     27  C   UNL     1     114.260 125.945 138.078  0.00  0.00    +0.000 C 
ENDBRANCH   9  26
BRANCH  10  28
ATOM     28  O   UNL     1     111.770 124.418 136.704  0.00  0.00    +0.000 OA
ATOM     29  C   UNL     1     111.406 124.145 137.392  0.00  0.00    +0.000 C 
ENDBRANCH  10  28
BRANCH  11  30
ATOM     30  O   UNL     1     113.320 124.508 137.262  0.00  0.00    +0.000 OA
ATOM     31  C   UNL     1     113.790 124.061 136.754  0.00  0.00    +0.000 C 
ENDBRANCH  11  30
TORSDOF 8
ENDMDL
