MODEL 1
REMARK VINA RESULT:      -7.2      0.000      0.000
REMARK  Name = 146093
REMARK  7 active torsions:
REMARK  status: ('A' for Active; 'I' for Inactive)
REMARK    1  A    between atoms: O_2  and  C_12
REMARK    2  A    between atoms: O_3  and  C_14
REMARK    3  A    between atoms: O_4  and  C_15
REMARK    4  A    between atoms: O_5  and  C_17
REMARK    5  A    between atoms: O_7  and  C_21
REMARK    6  A    between atoms: O_8  and  C_22
REMARK    7  A    between atoms: C_11  and  C_16
REMARK                            x       y       z     vdW  Elec       q    Type
REMARK                         _______ _______ _______ _____ _____    ______ ____
ROOT
ATOM      1  O   UNL     1     103.909 124.182 146.634  0.00  0.00    +0.000 OA
ATOM      2  O   UNL     1     102.408 124.334 148.596  0.00  0.00    +0.000 OA
ATOM      3  C   UNL     1     102.642 123.930 147.246  0.00  0.00    +0.000 A 
ATOM      4  C   UNL     1     103.143 123.879 146.592  0.00  0.00    +0.000 A 
ATOM      5  C   UNL     1     104.175 124.536 147.331  0.00  0.00    +0.000 A 
ATOM      6  C   UNL     1     103.675 124.586 147.985  0.00  0.00    +0.000 A 
ATOM      7  C   UNL     1     102.908 124.283 147.942  0.00  0.00    +0.000 A 
ATOM      8  C   UNL     1     102.877 123.513 145.861  0.00  0.00    +0.000 A 
ATOM      9  C   UNL     1     101.842 123.619 147.215  0.00  0.00    +0.000 A 
ATOM     10  C   UNL     1     102.080 123.197 145.811  0.00  0.00    +0.000 A 
ATOM     11  C   UNL     1     101.559 123.250 146.492  0.00  0.00    +0.000 A 
ENDROOT
BRANCH   5  12
ATOM     12  C   UNL     1     104.941 124.838 147.373  0.00  0.00    +0.000 A 
ATOM     13  C   UNL     1     105.110 125.581 147.056  0.00  0.00    +0.000 A 
ATOM     14  C   UNL     1     105.540 124.396 147.732  0.00  0.00    +0.000 A 
ATOM     15  C   UNL     1     105.877 125.882 147.098  0.00  0.00    +0.000 A 
ATOM     16  C   UNL     1     106.475 125.442 147.457  0.00  0.00    +0.000 A 
ATOM     17  C   UNL     1     106.306 124.699 147.773  0.00  0.00    +0.000 A 
BRANCH  15  18
ATOM     18  O   UNL     1     106.046 126.625 146.782  0.00  0.00    +0.000 OA
ATOM     19  C   UNL     1     105.435 127.101 146.497  0.00  0.00    +0.000 C 
ENDBRANCH  15  18
BRANCH  16  20
ATOM     20  O   UNL     1     107.242 125.743 147.499  0.00  0.00    +0.000 OA
ATOM     21  C   UNL     1     107.854 125.274 147.790  0.00  0.00    +0.000 C 
ENDBRANCH  16  20
ENDBRANCH   5  12
BRANCH   6  22
ATOM     22  O   UNL     1     103.941 124.940 148.681  0.00  0.00    +0.000 OA
ATOM     23  C   UNL     1     103.398 125.218 149.236  0.00  0.00    +0.000 C 
ENDBRANCH   6  22
BRANCH   8  24
ATOM     24  O   UNL     1     103.384 123.467 145.212  0.00  0.00    +0.000 OA
ATOM     25  C   UNL     1     103.702 122.739 144.988  0.00  0.00    +0.000 C 
ENDBRANCH   8  24
BRANCH   9  26
ATOM     26  O   UNL     1     101.349 123.674 147.874  0.00  0.00    +0.000 OA
ATOM     27  C   UNL     1     100.711 123.156 147.957  0.00  0.00    +0.000 C 
ENDBRANCH   9  26
BRANCH  10  28
ATOM     28  O   UNL     1     101.817 122.844 145.114  0.00  0.00    +0.000 OA
ATOM     29  C   UNL     1     101.014 122.849 144.926  0.00  0.00    +0.000 C 
ENDBRANCH  10  28
TORSDOF 7
ENDMDL
MODEL 2
REMARK VINA RESULT:      -7.2     13.058     14.870
REMARK  Name = 146093
REMARK  7 active torsions:
REMARK  status: ('A' for Active; 'I' for Inactive)
REMARK    1  A    between atoms: O_2  and  C_12
REMARK    2  A    between atoms: O_3  and  C_14
REMARK    3  A    between atoms: O_4  and  C_15
REMARK    4  A    between atoms: O_5  and  C_17
REMARK    5  A    between atoms: O_7  and  C_21
REMARK    6  A    between atoms: O_8  and  C_22
REMARK    7  A    between atoms: C_11  and  C_16
REMARK                            x       y       z     vdW  Elec       q    Type
REMARK                         _______ _______ _______ _____ _____    ______ ____
ROOT
ATOM      1  O   UNL     1     113.217 127.632 136.222  0.00  0.00    +0.000 OA
ATOM      2  O   UNL     1     111.027 127.902 135.100  0.00  0.00    +0.000 OA
ATOM      3  C   UNL     1     111.940 127.104 135.855  0.00  0.00    +0.000 A 
ATOM      4  C   UNL     1     112.670 127.014 136.229  0.00  0.00    +0.000 A 
ATOM      5  C   UNL     1     113.033 128.340 135.839  0.00  0.00    +0.000 A 
ATOM      6  C   UNL     1     112.304 128.430 135.465  0.00  0.00    +0.000 A 
ATOM      7  C   UNL     1     111.757 127.812 135.474  0.00  0.00    +0.000 A 
ATOM      8  C   UNL     1     112.872 126.282 136.631  0.00  0.00    +0.000 A 
ATOM      9  C   UNL     1     111.362 126.468 135.857  0.00  0.00    +0.000 A 
ATOM     10  C   UNL     1     112.307 125.635 136.643  0.00  0.00    +0.000 A 
ATOM     11  C   UNL     1     111.548 125.728 136.253  0.00  0.00    +0.000 A 
ENDROOT
BRANCH   5  12
ATOM     12  C   UNL     1     113.580 128.958 135.831  0.00  0.00    +0.000 A 
ATOM     13  C   UNL     1     113.630 129.474 136.473  0.00  0.00    +0.000 A 
ATOM     14  C   UNL     1     114.079 129.059 135.181  0.00  0.00    +0.000 A 
ATOM     15  C   UNL     1     114.177 130.091 136.464  0.00  0.00    +0.000 A 
ATOM     16  C   UNL     1     114.675 130.192 135.815  0.00  0.00    +0.000 A 
ATOM     17  C   UNL     1     114.626 129.676 135.173  0.00  0.00    +0.000 A 
BRANCH  15  18
ATOM     18  O   UNL     1     114.226 130.608 137.105  0.00  0.00    +0.000 OA
ATOM     19  C   UNL     1     113.853 130.419 137.817  0.00  0.00    +0.000 C 
ENDBRANCH  15  18
BRANCH  16  20
ATOM     20  O   UNL     1     115.222 130.810 135.806  0.00  0.00    +0.000 OA
ATOM     21  C   UNL     1     115.675 130.951 135.131  0.00  0.00    +0.000 C 
ENDBRANCH  16  20
ENDBRANCH   5  12
BRANCH   6  22
ATOM     22  O   UNL     1     112.121 129.137 135.083  0.00  0.00    +0.000 OA
ATOM     23  C   UNL     1     111.334 129.378 135.015  0.00  0.00    +0.000 C 
ENDBRANCH   6  22
BRANCH   8  24
ATOM     24  O   UNL     1     113.605 126.201 137.002  0.00  0.00    +0.000 OA
ATOM     25  C   UNL     1     114.177 125.700 136.681  0.00  0.00    +0.000 C 
ENDBRANCH   8  24
BRANCH   9  26
ATOM     26  O   UNL     1     110.635 126.567 135.480  0.00  0.00    +0.000 OA
ATOM     27  C   UNL     1     110.245 125.915 135.158  0.00  0.00    +0.000 C 
ENDBRANCH   9  26
BRANCH  10  28
ATOM     28  O   UNL     1     112.493 124.928 137.026  0.00  0.00    +0.000 OA
ATOM     29  C   UNL     1     111.894 124.463 137.348  0.00  0.00    +0.000 C 
ENDBRANCH  10  28
TORSDOF 7
ENDMDL
MODEL 3
REMARK VINA RESULT:      -7.1      1.100      2.713
REMARK  Name = 146093
REMARK  7 active torsions:
REMARK  status: ('A' for Active; 'I' for Inactive)
REMARK    1  A    between atoms: O_2  and  C_12
REMARK    2  A    between atoms: O_3  and  C_14
REMARK    3  A    between atoms: O_4  and  C_15
REMARK    4  A    between atoms: O_5  and  C_17
REMARK    5  A    between atoms: O_7  and  C_21
REMARK    6  A    between atoms: O_8  and  C_22
REMARK    7  A    between atoms: C_11  and  C_16
REMARK                            x       y       z     vdW  Elec       q    Type
REMARK                         _______ _______ _______ _____ _____    ______ ____
ROOT
ATOM      1  O   UNL     1     104.513 125.021 147.140  0.00  0.00    +0.000 OA
ATOM      2  O   UNL     1     104.174 123.732 145.054  0.00  0.00    +0.000 OA
ATOM      3  C   UNL     1     103.779 124.051 146.389  0.00  0.00    +0.000 A 
ATOM      4  C   UNL     1     103.892 124.481 147.084  0.00  0.00    +0.000 A 
ATOM      5  C   UNL     1     105.021 125.131 146.499  0.00  0.00    +0.000 A 
ATOM      6  C   UNL     1     104.909 124.702 145.804  0.00  0.00    +0.000 A 
ATOM      7  C   UNL     1     104.287 124.162 145.749  0.00  0.00    +0.000 A 
ATOM      8  C   UNL     1     103.369 124.374 147.758  0.00  0.00    +0.000 A 
ATOM      9  C   UNL     1     103.135 123.485 146.320  0.00  0.00    +0.000 A 
ATOM     10  C   UNL     1     102.720 123.813 147.707  0.00  0.00    +0.000 A 
ATOM     11  C   UNL     1     102.603 123.366 146.983  0.00  0.00    +0.000 A 
ENDROOT
BRANCH   5  12
ATOM     12  C   UNL     1     105.642 125.672 146.555  0.00  0.00    +0.000 A 
ATOM     13  C   UNL     1     106.356 125.446 146.901  0.00  0.00    +0.000 A 
ATOM     14  C   UNL     1     105.548 126.439 146.264  0.00  0.00    +0.000 A 
ATOM     15  C   UNL     1     106.977 125.987 146.956  0.00  0.00    +0.000 A 
ATOM     16  C   UNL     1     106.883 126.753 146.665  0.00  0.00    +0.000 A 
ATOM     17  C   UNL     1     106.169 126.979 146.319  0.00  0.00    +0.000 A 
BRANCH  15  18
ATOM     18  O   UNL     1     107.691 125.762 147.302  0.00  0.00    +0.000 OA
ATOM     19  C   UNL     1     107.715 125.116 147.815  0.00  0.00    +0.000 C 
ENDBRANCH  15  18
BRANCH  16  20
ATOM     20  O   UNL     1     107.504 127.295 146.720  0.00  0.00    +0.000 OA
ATOM     21  C   UNL     1     107.433 128.040 146.377  0.00  0.00    +0.000 C 
ENDBRANCH  16  20
ENDBRANCH   5  12
BRANCH   6  22
ATOM     22  O   UNL     1     105.417 124.813 145.164  0.00  0.00    +0.000 OA
ATOM     23  C   UNL     1     105.390 124.295 144.522  0.00  0.00    +0.000 C 
ENDBRANCH   6  22
BRANCH   8  24
ATOM     24  O   UNL     1     103.489 124.808 148.449  0.00  0.00    +0.000 OA
ATOM     25  C   UNL     1     102.973 125.421 148.647  0.00  0.00    +0.000 C 
ENDBRANCH   8  24
BRANCH   9  26
ATOM     26  O   UNL     1     103.030 123.060 145.620  0.00  0.00    +0.000 OA
ATOM     27  C   UNL     1     102.291 122.740 145.439  0.00  0.00    +0.000 C 
ENDBRANCH   9  26
BRANCH  10  28
ATOM     28  O   UNL     1     102.213 123.704 148.349  0.00  0.00    +0.000 OA
ATOM     29  C   UNL     1     101.847 122.975 148.467  0.00  0.00    +0.000 C 
ENDBRANCH  10  28
TORSDOF 7
ENDMDL
MODEL 4
REMARK VINA RESULT:      -6.9     12.433     13.984
REMARK  Name = 146093
REMARK  7 active torsions:
REMARK  status: ('A' for Active; 'I' for Inactive)
REMARK    1  A    between atoms: O_2  and  C_12
REMARK    2  A    between atoms: O_3  and  C_14
REMARK    3  A    between atoms: O_4  and  C_15
REMARK    4  A    between atoms: O_5  and  C_17
REMARK    5  A    between atoms: O_7  and  C_21
REMARK    6  A    between atoms: O_8  and  C_22
REMARK    7  A    between atoms: C_11  and  C_16
REMARK                            x       y       z     vdW  Elec       q    Type
REMARK                         _______ _______ _______ _____ _____    ______ ____
ROOT
ATOM      1  O   UNL     1     111.875 127.058 136.370  0.00  0.00    +0.000 OA
ATOM      2  O   UNL     1     110.802 124.939 135.672  0.00  0.00    +0.000 OA
ATOM      3  C   UNL     1     111.888 125.631 136.291  0.00  0.00    +0.000 A 
ATOM      4  C   UNL     1     112.245 126.337 136.524  0.00  0.00    +0.000 A 
ATOM      5  C   UNL     1     111.146 127.072 135.983  0.00  0.00    +0.000 A 
ATOM      6  C   UNL     1     110.788 126.366 135.750  0.00  0.00    +0.000 A 
ATOM      7  C   UNL     1     111.160 125.645 135.905  0.00  0.00    +0.000 A 
ATOM      8  C   UNL     1     113.004 126.335 136.928  0.00  0.00    +0.000 A 
ATOM      9  C   UNL     1     112.264 124.874 136.446  0.00  0.00    +0.000 A 
ATOM     10  C   UNL     1     113.395 125.587 137.091  0.00  0.00    +0.000 A 
ATOM     11  C   UNL     1     113.023 124.852 136.849  0.00  0.00    +0.000 A 
ENDROOT
BRANCH   5  12
ATOM     12  C   UNL     1     110.776 127.793 135.829  0.00  0.00    +0.000 A 
ATOM     13  C   UNL     1     110.289 128.137 136.400  0.00  0.00    +0.000 A 
ATOM     14  C   UNL     1     110.892 128.169 135.104  0.00  0.00    +0.000 A 
ATOM     15  C   UNL     1     109.919 128.858 136.244  0.00  0.00    +0.000 A 
ATOM     16  C   UNL     1     110.035 129.235 135.520  0.00  0.00    +0.000 A 
ATOM     17  C   UNL     1     110.522 128.890 134.950  0.00  0.00    +0.000 A 
BRANCH  15  18
ATOM     18  O   UNL     1     109.433 129.203 136.815  0.00  0.00    +0.000 OA
ATOM     19  C   UNL     1     109.601 129.103 137.616  0.00  0.00    +0.000 C 
ENDBRANCH  15  18
BRANCH  16  20
ATOM     20  O   UNL     1     109.665 129.956 135.365  0.00  0.00    +0.000 OA
ATOM     21  C   UNL     1     109.708 130.288 134.612  0.00  0.00    +0.000 C 
ENDBRANCH  16  20
ENDBRANCH   5  12
BRANCH   6  22
ATOM     22  O   UNL     1     110.060 126.380 135.364  0.00  0.00    +0.000 OA
ATOM     23  C   UNL     1     109.815 125.729 134.922  0.00  0.00    +0.000 C 
ENDBRANCH   6  22
BRANCH   8  24
ATOM     24  O   UNL     1     113.354 127.046 137.156  0.00  0.00    +0.000 OA
ATOM     25  C   UNL     1     113.402 127.243 137.956  0.00  0.00    +0.000 C 
ENDBRANCH   8  24
BRANCH   9  26
ATOM     26  O   UNL     1     111.899 124.173 136.210  0.00  0.00    +0.000 OA
ATOM     27  C   UNL     1     112.003 123.484 136.653  0.00  0.00    +0.000 C 
ENDBRANCH   9  26
BRANCH  10  28
ATOM     28  O   UNL     1     114.124 125.576 137.478  0.00  0.00    +0.000 OA
ATOM     29  C   UNL     1     114.671 124.982 137.311  0.00  0.00    +0.000 C 
ENDBRANCH  10  28
TORSDOF 7
ENDMDL
MODEL 5
REMARK VINA RESULT:      -6.9      9.531     11.326
REMARK  Name = 146093
REMARK  7 active torsions:
REMARK  status: ('A' for Active; 'I' for Inactive)
REMARK    1  A    between atoms: O_2  and  C_12
REMARK    2  A    between atoms: O_3  and  C_14
REMARK    3  A    between atoms: O_4  and  C_15
REMARK    4  A    between atoms: O_5  and  C_17
REMARK    5  A    between atoms: O_7  and  C_21
REMARK    6  A    between atoms: O_8  and  C_22
REMARK    7  A    between atoms: C_11  and  C_16
REMARK                            x       y       z     vdW  Elec       q    Type
REMARK                         _______ _______ _______ _____ _____    ______ ____
ROOT
ATOM      1  O   UNL     1     111.623 131.215 145.189  0.00  0.00    +0.000 OA
ATOM      2  O   UNL     1     112.468 132.494 143.245  0.00  0.00    +0.000 OA
ATOM      3  C   UNL     1     112.011 131.266 143.814  0.00  0.00    +0.000 A 
ATOM      4  C   UNL     1     111.730 130.840 144.462  0.00  0.00    +0.000 A 
ATOM      5  C   UNL     1     111.798 132.019 145.267  0.00  0.00    +0.000 A 
ATOM      6  C   UNL     1     112.079 132.445 144.619  0.00  0.00    +0.000 A 
ATOM      7  C   UNL     1     112.186 132.068 143.893  0.00  0.00    +0.000 A 
ATOM      8  C   UNL     1     111.544 130.003 144.393  0.00  0.00    +0.000 A 
ATOM      9  C   UNL     1     112.127 130.885 143.052  0.00  0.00    +0.000 A 
ATOM     10  C   UNL     1     111.653 129.606 143.639  0.00  0.00    +0.000 A 
ATOM     11  C   UNL     1     111.946 130.050 142.964  0.00  0.00    +0.000 A 
ENDROOT
BRANCH   5  12
ATOM     12  C   UNL     1     111.691 132.394 145.994  0.00  0.00    +0.000 A 
ATOM     13  C   UNL     1     110.973 132.764 146.166  0.00  0.00    +0.000 A 
ATOM     14  C   UNL     1     112.302 132.400 146.549  0.00  0.00    +0.000 A 
ATOM     15  C   UNL     1     110.868 133.139 146.893  0.00  0.00    +0.000 A 
ATOM     16  C   UNL     1     111.478 133.145 147.448  0.00  0.00    +0.000 A 
ATOM     17  C   UNL     1     112.195 132.776 147.275  0.00  0.00    +0.000 A 
BRANCH  15  18
ATOM     18  O   UNL     1     110.151 133.508 147.066  0.00  0.00    +0.000 OA
ATOM     19  C   UNL     1     109.455 133.250 146.705  0.00  0.00    +0.000 C 
ENDBRANCH  15  18
BRANCH  16  20
ATOM     20  O   UNL     1     111.372 133.521 148.175  0.00  0.00    +0.000 OA
ATOM     21  C   UNL     1     111.911 133.395 148.786  0.00  0.00    +0.000 C 
ENDBRANCH  16  20
ENDBRANCH   5  12
BRANCH   6  22
ATOM     22  O   UNL     1     112.254 133.247 144.698  0.00  0.00    +0.000 OA
ATOM     23  C   UNL     1     112.174 133.752 144.051  0.00  0.00    +0.000 C 
ENDBRANCH   6  22
BRANCH   8  24
ATOM     24  O   UNL     1     111.263 129.585 145.046  0.00  0.00    +0.000 OA
ATOM     25  C   UNL     1     111.740 129.020 145.411  0.00  0.00    +0.000 C 
ENDBRANCH   8  24
BRANCH   9  26
ATOM     26  O   UNL     1     112.409 131.320 142.410  0.00  0.00    +0.000 OA
ATOM     27  C   UNL     1     112.888 130.956 141.845  0.00  0.00    +0.000 C 
ENDBRANCH   9  26
BRANCH  10  28
ATOM     28  O   UNL     1     111.477 128.804 143.563  0.00  0.00    +0.000 OA
ATOM     29  C   UNL     1     111.255 128.497 142.831  0.00  0.00    +0.000 C 
ENDBRANCH  10  28
TORSDOF 7
ENDMDL
MODEL 6
REMARK VINA RESULT:      -6.8     12.660     14.258
REMARK  Name = 146093
REMARK  7 active torsions:
REMARK  status: ('A' for Active; 'I' for Inactive)
REMARK    1  A    between atoms: O_2  and  C_12
REMARK    2  A    between atoms: O_3  and  C_14
REMARK    3  A    between atoms: O_4  and  C_15
REMARK    4  A    between atoms: O_5  and  C_17
REMARK    5  A    between atoms: O_7  and  C_21
REMARK    6  A    between atoms: O_8  and  C_22
REMARK    7  A    between atoms: C_11  and  C_16
REMARK                            x       y       z     vdW  Elec       q    Type
REMARK                         _______ _______ _______ _____ _____    ______ ____
ROOT
ATOM      1  O   UNL     1     111.381 127.174 136.041  0.00  0.00    +0.000 OA
ATOM      2  O   UNL     1     113.799 127.529 136.431  0.00  0.00    +0.000 OA
ATOM      3  C   UNL     1     112.679 126.649 136.326  0.00  0.00    +0.000 A 
ATOM      4  C   UNL     1     111.873 126.530 136.196  0.00  0.00    +0.000 A 
ATOM      5  C   UNL     1     111.696 127.937 136.016  0.00  0.00    +0.000 A 
ATOM      6  C   UNL     1     112.502 128.055 136.146  0.00  0.00    +0.000 A 
ATOM      7  C   UNL     1     112.993 127.411 136.301  0.00  0.00    +0.000 A 
ATOM      8  C   UNL     1     111.534 125.741 136.220  0.00  0.00    +0.000 A 
ATOM      9  C   UNL     1     113.202 125.986 136.489  0.00  0.00    +0.000 A 
ATOM     10  C   UNL     1     112.041 125.066 136.381  0.00  0.00    +0.000 A 
ATOM     11  C   UNL     1     112.881 125.190 136.517  0.00  0.00    +0.000 A 
ENDROOT
BRANCH   5  12
ATOM     12  C   UNL     1     111.203 128.580 135.860  0.00  0.00    +0.000 A 
ATOM     13  C   UNL     1     110.776 128.931 136.473  0.00  0.00    +0.000 A 
ATOM     14  C   UNL     1     111.138 128.873 135.091  0.00  0.00    +0.000 A 
ATOM     15  C   UNL     1     110.284 129.574 136.316  0.00  0.00    +0.000 A 
ATOM     16  C   UNL     1     110.219 129.867 135.548  0.00  0.00    +0.000 A 
ATOM     17  C   UNL     1     110.646 129.516 134.936  0.00  0.00    +0.000 A 
BRANCH  15  18
ATOM     18  O   UNL     1     109.857 129.925 136.929  0.00  0.00    +0.000 OA
ATOM     19  C   UNL     1     109.740 129.518 137.637  0.00  0.00    +0.000 C 
ENDBRANCH  15  18
BRANCH  16  20
ATOM     20  O   UNL     1     109.727 130.511 135.392  0.00  0.00    +0.000 OA
ATOM     21  C   UNL     1     109.537 130.705 134.613  0.00  0.00    +0.000 C 
ENDBRANCH  16  20
ENDBRANCH   5  12
BRANCH   6  22
ATOM     22  O   UNL     1     112.816 128.817 136.120  0.00  0.00    +0.000 OA
ATOM     23  C   UNL     1     113.516 128.988 136.522  0.00  0.00    +0.000 C 
ENDBRANCH   6  22
BRANCH   8  24
ATOM     24  O   UNL     1     110.727 125.632 136.089  0.00  0.00    +0.000 OA
ATOM     25  C   UNL     1     110.461 125.364 135.355  0.00  0.00    +0.000 C 
ENDBRANCH   8  24
BRANCH   9  26
ATOM     26  O   UNL     1     114.007 126.114 136.618  0.00  0.00    +0.000 OA
ATOM     27  C   UNL     1     114.547 125.504 136.490  0.00  0.00    +0.000 C 
ENDBRANCH   9  26
BRANCH  10  28
ATOM     28  O   UNL     1     111.724 124.305 136.406  0.00  0.00    +0.000 OA
ATOM     29  C   UNL     1     112.083 123.723 136.868  0.00  0.00    +0.000 C 
ENDBRANCH  10  28
TORSDOF 7
ENDMDL
MODEL 7
REMARK VINA RESULT:      -6.8     13.075     14.755
REMARK  Name = 146093
REMARK  7 active torsions:
REMARK  status: ('A' for Active; 'I' for Inactive)
REMARK    1  A    between atoms: O_2  and  C_12
REMARK    2  A    between atoms: O_3  and  C_14
REMARK    3  A    between atoms: O_4  and  C_15
REMARK    4  A    between atoms: O_5  and  C_17
REMARK    5  A    between atoms: O_7  and  C_21
REMARK    6  A    between atoms: O_8  and  C_22
REMARK    7  A    between atoms: C_11  and  C_16
REMARK                            x       y       z     vdW  Elec       q    Type
REMARK                         _______ _______ _______ _____ _____    ______ ____
ROOT
ATOM      1  O   UNL     1     112.066 128.800 135.730  0.00  0.00    +0.000 OA
ATOM      2  O   UNL     1     112.552 126.423 136.217  0.00  0.00    +0.000 OA
ATOM      3  C   UNL     1     111.615 127.455 135.905  0.00  0.00    +0.000 A 
ATOM      4  C   UNL     1     111.453 128.248 135.742  0.00  0.00    +0.000 A 
ATOM      5  C   UNL     1     112.841 128.560 135.880  0.00  0.00    +0.000 A 
ATOM      6  C   UNL     1     113.003 127.767 136.043  0.00  0.00    +0.000 A 
ATOM      7  C   UNL     1     112.390 127.215 136.055  0.00  0.00    +0.000 A 
ATOM      8  C   UNL     1     110.650 128.510 135.584  0.00  0.00    +0.000 A 
ATOM      9  C   UNL     1     110.985 126.870 135.920  0.00  0.00    +0.000 A 
ATOM     10  C   UNL     1     110.008 127.940 135.596  0.00  0.00    +0.000 A 
ATOM     11  C   UNL     1     110.177 127.114 135.765  0.00  0.00    +0.000 A 
ENDROOT
BRANCH   5  12
ATOM     12  C   UNL     1     113.453 129.112 135.867  0.00  0.00    +0.000 A 
ATOM     13  C   UNL     1     113.602 129.579 136.531  0.00  0.00    +0.000 A 
ATOM     14  C   UNL     1     113.917 129.198 135.190  0.00  0.00    +0.000 A 
ATOM     15  C   UNL     1     114.215 130.132 136.517  0.00  0.00    +0.000 A 
ATOM     16  C   UNL     1     114.678 130.218 135.841  0.00  0.00    +0.000 A 
ATOM     17  C   UNL     1     114.529 129.751 135.177  0.00  0.00    +0.000 A 
BRANCH  15  18
ATOM     18  O   UNL     1     114.364 130.598 137.181  0.00  0.00    +0.000 OA
ATOM     19  C   UNL     1     113.818 130.622 137.800  0.00  0.00    +0.000 C 
ENDBRANCH  15  18
BRANCH  16  20
ATOM     20  O   UNL     1     115.291 130.770 135.827  0.00  0.00    +0.000 OA
ATOM     21  C   UNL     1     115.710 130.905 135.130  0.00  0.00    +0.000 C 
ENDBRANCH  16  20
ENDBRANCH   5  12
BRANCH   6  22
ATOM     22  O   UNL     1     113.777 127.528 136.193  0.00  0.00    +0.000 OA
ATOM     23  C   UNL     1     113.920 126.816 136.585  0.00  0.00    +0.000 C 
ENDBRANCH   6  22
BRANCH   8  24
ATOM     24  O   UNL     1     110.498 129.305 135.422  0.00  0.00    +0.000 OA
ATOM     25  C   UNL     1     110.266 129.534 134.664  0.00  0.00    +0.000 C 
ENDBRANCH   8  24
BRANCH   9  26
ATOM     26  O   UNL     1     111.157 126.080 136.084  0.00  0.00    +0.000 OA
ATOM     27  C   UNL     1     110.694 125.481 135.756  0.00  0.00    +0.000 C 
ENDBRANCH   9  26
BRANCH  10  28
ATOM     28  O   UNL     1     109.234 128.182 135.445  0.00  0.00    +0.000 OA
ATOM     29  C   UNL     1     108.603 127.813 135.827  0.00  0.00    +0.000 C 
ENDBRANCH  10  28
TORSDOF 7
ENDMDL
MODEL 8
REMARK VINA RESULT:      -6.8     12.823     14.128
REMARK  Name = 146093
REMARK  7 active torsions:
REMARK  status: ('A' for Active; 'I' for Inactive)
REMARK    1  A    between atoms: O_2  and  C_12
REMARK    2  A    between atoms: O_3  and  C_14
REMARK    3  A    between atoms: O_4  and  C_15
REMARK    4  A    between atoms: O_5  and  C_17
REMARK    5  A    between atoms: O_7  and  C_21
REMARK    6  A    between atoms: O_8  and  C_22
REMARK    7  A    between atoms: C_11  and  C_16
REMARK                            x       y       z     vdW  Elec       q    Type
REMARK                         _______ _______ _______ _____ _____    ______ ____
ROOT
ATOM      1  O   UNL     1     111.844 127.080 136.676  0.00  0.00    +0.000 OA
ATOM      2  O   UNL     1     110.519 127.414 134.612  0.00  0.00    +0.000 OA
ATOM      3  C   UNL     1     111.177 127.951 135.760  0.00  0.00    +0.000 A 
ATOM      4  C   UNL     1     111.619 127.840 136.448  0.00  0.00    +0.000 A 
ATOM      5  C   UNL     1     111.627 126.430 136.215  0.00  0.00    +0.000 A 
ATOM      6  C   UNL     1     111.185 126.542 135.527  0.00  0.00    +0.000 A 
ATOM      7  C   UNL     1     110.961 127.303 135.300  0.00  0.00    +0.000 A 
ATOM      8  C   UNL     1     111.851 128.509 136.936  0.00  0.00    +0.000 A 
ATOM      9  C   UNL     1     110.937 128.739 135.513  0.00  0.00    +0.000 A 
ATOM     10  C   UNL     1     111.620 129.303 136.704  0.00  0.00    +0.000 A 
ATOM     11  C   UNL     1     111.160 129.419 135.988  0.00  0.00    +0.000 A 
ENDROOT
BRANCH   5  12
ATOM     12  C   UNL     1     111.852 125.670 136.442  0.00  0.00    +0.000 A 
ATOM     13  C   UNL     1     112.612 125.396 136.274  0.00  0.00    +0.000 A 
ATOM     14  C   UNL     1     111.316 125.183 136.839  0.00  0.00    +0.000 A 
ATOM     15  C   UNL     1     112.836 124.636 136.503  0.00  0.00    +0.000 A 
ATOM     16  C   UNL     1     112.301 124.149 136.898  0.00  0.00    +0.000 A 
ATOM     17  C   UNL     1     111.541 124.423 137.067  0.00  0.00    +0.000 A 
BRANCH  15  18
ATOM     18  O   UNL     1     113.596 124.362 136.334  0.00  0.00    +0.000 OA
ATOM     19  C   UNL     1     114.232 124.886 136.333  0.00  0.00    +0.000 C 
ENDBRANCH  15  18
BRANCH  16  20
ATOM     20  O   UNL     1     112.525 123.389 137.127  0.00  0.00    +0.000 OA
ATOM     21  C   UNL     1     111.956 122.850 137.382  0.00  0.00    +0.000 C 
ENDBRANCH  16  20
ENDBRANCH   5  12
BRANCH   6  22
ATOM     22  O   UNL     1     110.969 125.893 135.067  0.00  0.00    +0.000 OA
ATOM     23  C   UNL     1     110.277 125.918 134.618  0.00  0.00    +0.000 C 
ENDBRANCH   6  22
BRANCH   8  24
ATOM     24  O   UNL     1     112.293 128.387 137.622  0.00  0.00    +0.000 OA
ATOM     25  C   UNL     1     111.943 128.494 138.362  0.00  0.00    +0.000 C 
ENDBRANCH   8  24
BRANCH   9  26
ATOM     26  O   UNL     1     110.495 128.840 134.823  0.00  0.00    +0.000 OA
ATOM     27  C   UNL     1     110.005 129.499 134.741  0.00  0.00    +0.000 C 
ENDBRANCH   9  26
BRANCH  10  28
ATOM     28  O   UNL     1     111.838 129.950 137.167  0.00  0.00    +0.000 OA
ATOM     29  C   UNL     1     112.002 130.676 136.811  0.00  0.00    +0.000 C 
ENDBRANCH  10  28
TORSDOF 7
ENDMDL
MODEL 9
REMARK VINA RESULT:      -6.7     12.369     13.815
REMARK  Name = 146093
REMARK  7 active torsions:
REMARK  status: ('A' for Active; 'I' for Inactive)
REMARK    1  A    between atoms: O_2  and  C_12
REMARK    2  A    between atoms: O_3  and  C_14
REMARK    3  A    between atoms: O_4  and  C_15
REMARK    4  A    between atoms: O_5  and  C_17
REMARK    5  A    between atoms: O_7  and  C_21
REMARK    6  A    between atoms: O_8  and  C_22
REMARK    7  A    between atoms: C_11  and  C_16
REMARK                            x       y       z     vdW  Elec       q    Type
REMARK                         _______ _______ _______ _____ _____    ______ ____
ROOT
ATOM      1  O   UNL     1     113.174 127.092 138.819  0.00  0.00    +0.000 OA
ATOM      2  O   UNL     1     112.938 128.954 137.206  0.00  0.00    +0.000 OA
ATOM      3  C   UNL     1     113.184 128.492 138.535  0.00  0.00    +0.000 A 
ATOM      4  C   UNL     1     113.262 127.872 139.073  0.00  0.00    +0.000 A 
ATOM      5  C   UNL     1     113.006 126.933 138.027  0.00  0.00    +0.000 A 
ATOM      6  C   UNL     1     112.927 127.553 137.489  0.00  0.00    +0.000 A 
ATOM      7  C   UNL     1     113.017 128.333 137.744  0.00  0.00    +0.000 A 
ATOM      8  C   UNL     1     113.437 128.025 139.901  0.00  0.00    +0.000 A 
ATOM      9  C   UNL     1     113.274 129.309 138.788  0.00  0.00    +0.000 A 
ATOM     10  C   UNL     1     113.530 128.835 140.171  0.00  0.00    +0.000 A 
ATOM     11  C   UNL     1     113.449 129.481 139.611  0.00  0.00    +0.000 A 
ENDROOT
BRANCH   5  12
ATOM     12  C   UNL     1     112.917 126.153 137.773  0.00  0.00    +0.000 A 
ATOM     13  C   UNL     1     113.579 125.712 137.553  0.00  0.00    +0.000 A 
ATOM     14  C   UNL     1     112.165 125.813 137.740  0.00  0.00    +0.000 A 
ATOM     15  C   UNL     1     113.489 124.932 137.300  0.00  0.00    +0.000 A 
ATOM     16  C   UNL     1     112.738 124.593 137.266  0.00  0.00    +0.000 A 
ATOM     17  C   UNL     1     112.076 125.034 137.486  0.00  0.00    +0.000 A 
BRANCH  15  18
ATOM     18  O   UNL     1     114.151 124.491 137.080  0.00  0.00    +0.000 OA
ATOM     19  C   UNL     1     114.907 124.752 137.282  0.00  0.00    +0.000 C 
ENDBRANCH  15  18
BRANCH  16  20
ATOM     20  O   UNL     1     112.648 123.813 137.013  0.00  0.00    +0.000 OA
ATOM     21  C   UNL     1     111.895 123.481 136.956  0.00  0.00    +0.000 C 
ENDBRANCH  16  20
ENDBRANCH   5  12
BRANCH   6  22
ATOM     22  O   UNL     1     112.760 127.394 136.698  0.00  0.00    +0.000 OA
ATOM     23  C   UNL     1     112.992 127.927 136.112  0.00  0.00    +0.000 C 
ENDBRANCH   6  22
BRANCH   8  24
ATOM     24  O   UNL     1     113.513 127.398 140.431  0.00  0.00    +0.000 OA
ATOM     25  C   UNL     1     114.253 127.213 140.747  0.00  0.00    +0.000 C 
ENDBRANCH   8  24
BRANCH   9  26
ATOM     26  O   UNL     1     113.194 129.923 138.243  0.00  0.00    +0.000 OA
ATOM     27  C   UNL     1     113.629 130.618 138.337  0.00  0.00    +0.000 C 
ENDBRANCH   9  26
BRANCH  10  28
ATOM     28  O   UNL     1     113.698 128.991 140.964  0.00  0.00    +0.000 OA
ATOM     29  C   UNL     1     113.410 129.677 141.319  0.00  0.00    +0.000 C 
ENDBRANCH  10  28
TORSDOF 7
ENDMDL
MODEL 10
REMARK VINA RESULT:      -6.7     12.079     14.041
REMARK  Name = 146093
REMARK  7 active torsions:
REMARK  status: ('A' for Active; 'I' for Inactive)
REMARK    1  A    between atoms: O_2  and  C_12
REMARK    2  A    between atoms: O_3  and  C_14
REMARK    3  A    between atoms: O_4  and  C_15
REMARK    4  A    between atoms: O_5  and  C_17
REMARK    5  A    between atoms: O_7  and  C_21
REMARK    6  A    between atoms: O_8  and  C_22
REMARK    7  A    between atoms: C_11  and  C_16
REMARK                            x       y       z     vdW  Elec       q    Type
REMARK                         _______ _______ _______ _____ _____    ______ ____
ROOT
ATOM      1  O   UNL     1     113.097 127.443 137.197  0.00  0.00    +0.000 OA
ATOM      2  O   UNL     1     112.805 128.127 139.558  0.00  0.00    +0.000 OA
ATOM      3  C   UNL     1     113.061 128.466 138.194  0.00  0.00    +0.000 A 
ATOM      4  C   UNL     1     113.158 128.238 137.407  0.00  0.00    +0.000 A 
ATOM      5  C   UNL     1     112.938 126.875 137.775  0.00  0.00    +0.000 A 
ATOM      6  C   UNL     1     112.841 127.103 138.562  0.00  0.00    +0.000 A 
ATOM      7  C   UNL     1     112.902 127.899 138.771  0.00  0.00    +0.000 A 
ATOM      8  C   UNL     1     113.323 128.821 136.797  0.00  0.00    +0.000 A 
ATOM      9  C   UNL     1     113.122 129.292 138.425  0.00  0.00    +0.000 A 
ATOM     10  C   UNL     1     113.388 129.650 137.009  0.00  0.00    +0.000 A 
ATOM     11  C   UNL     1     113.287 129.888 137.828  0.00  0.00    +0.000 A 
ENDROOT
BRANCH   5  12
ATOM     12  C   UNL     1     112.877 126.080 137.565  0.00  0.00    +0.000 A 
ATOM     13  C   UNL     1     113.557 125.620 137.485  0.00  0.00    +0.000 A 
ATOM     14  C   UNL     1     112.134 125.744 137.433  0.00  0.00    +0.000 A 
ATOM     15  C   UNL     1     113.495 124.824 137.275  0.00  0.00    +0.000 A 
ATOM     16  C   UNL     1     112.753 124.489 137.144  0.00  0.00    +0.000 A 
ATOM     17  C   UNL     1     112.073 124.949 137.223  0.00  0.00    +0.000 A 
BRANCH  15  18
ATOM     18  O   UNL     1     114.175 124.365 137.196  0.00  0.00    +0.000 OA
ATOM     19  C   UNL     1     114.918 124.723 137.197  0.00  0.00    +0.000 C 
ENDBRANCH  15  18
BRANCH  16  20
ATOM     20  O   UNL     1     112.691 123.694 136.933  0.00  0.00    +0.000 OA
ATOM     21  C   UNL     1     111.954 123.323 136.932  0.00  0.00    +0.000 C 
ENDBRANCH  16  20
ENDBRANCH   5  12
BRANCH   6  22
ATOM     22  O   UNL     1     112.683 126.535 139.138  0.00  0.00    +0.000 OA
ATOM     23  C   UNL     1     112.883 126.680 139.926  0.00  0.00    +0.000 C 
ENDBRANCH   6  22
BRANCH   8  24
ATOM     24  O   UNL     1     113.419 128.583 136.012  0.00  0.00    +0.000 OA
ATOM     25  C   UNL     1     112.843 128.772 135.452  0.00  0.00    +0.000 C 
ENDBRANCH   8  24
BRANCH   9  26
ATOM     26  O   UNL     1     113.024 129.510 139.215  0.00  0.00    +0.000 OA
ATOM     27  C   UNL     1     112.717 130.253 139.402  0.00  0.00    +0.000 C 
ENDBRANCH   9  26
BRANCH  10  28
ATOM     28  O   UNL     1     113.547 130.216 136.430  0.00  0.00    +0.000 OA
ATOM     29  C   UNL     1     113.985 130.888 136.618  0.00  0.00    +0.000 C 
ENDBRANCH  10  28
TORSDOF 7
ENDMDL
