MODEL 1
REMARK VINA RESULT:     -10.6      0.000      0.000
REMARK  Name = 131751924
REMARK  6 active torsions:
REMARK  status: ('A' for Active; 'I' for Inactive)
REMARK    1  A    between atoms: O_3  and  C_22
REMARK    2  A    between atoms: O_3  and  C_30
REMARK    3  A    between atoms: O_7  and  C_26
REMARK    4  A    between atoms: O_7  and  C_31
REMARK    5  A    between atoms: C_27  and  C_29
REMARK    6  A    between atoms: C_34  and  C_39
REMARK                            x       y       z     vdW  Elec       q    Type
REMARK                         _______ _______ _______ _____ _____    ______ ____
ROOT
ATOM      1  O   UNL     1     113.066 128.528 138.111  0.00  0.00    +0.000 OA
ATOM      2  O   UNL     1     112.408 126.239 138.783  0.00  0.00    +0.000 OA
ATOM      3  O   UNL     1     113.044 126.402 140.068  0.00  0.00    +0.000 OA
ATOM      4  C   UNL     1     112.419 127.290 137.815  0.00  0.00    +0.000 A 
ATOM      5  C   UNL     1     113.942 128.451 140.165  0.00  0.00    +0.000 A 
ATOM      6  C   UNL     1     113.056 127.477 139.079  0.00  0.00    +0.000 A 
ATOM      7  C   UNL     1     112.627 127.002 138.559  0.00  0.00    +0.000 A 
ATOM      8  C   UNL     1     112.638 128.053 137.590  0.00  0.00    +0.000 A 
ATOM      9  C   UNL     1     113.275 128.240 138.856  0.00  0.00    +0.000 A 
ATOM     10  C   UNL     1     113.722 128.745 139.389  0.00  0.00    +0.000 A 
ATOM     11  C   UNL     1     113.714 127.656 140.399  0.00  0.00    +0.000 A 
ATOM     12  C   UNL     1     113.267 127.166 139.852  0.00  0.00    +0.000 A 
ENDROOT
BRANCH   8  15
ATOM     13  O   UNL     1     113.374 128.818 134.937  0.00  0.00    +0.000 OA
ATOM     14  O   UNL     1     111.803 129.204 134.613  0.00  0.00    +0.000 OA
ATOM     15  C   UNL     1     112.429 128.341 136.847  0.00  0.00    +0.000 A 
ATOM     16  C   UNL     1     113.006 128.435 136.264  0.00  0.00    +0.000 A 
ATOM     17  C   UNL     1     111.644 128.534 136.684  0.00  0.00    +0.000 A 
ATOM     18  C   UNL     1     112.797 128.723 135.519  0.00  0.00    +0.000 A 
ATOM     19  C   UNL     1     111.435 128.822 135.940  0.00  0.00    +0.000 A 
ATOM     20  C   UNL     1     112.012 128.917 135.358  0.00  0.00    +0.000 A 
ENDBRANCH   8  15
BRANCH   4  21
ATOM     21  O   UNL     1     111.990 126.814 137.294  0.00  0.00    +0.000 OA
BRANCH  21  30
ATOM     22  O   UNL     1     113.110 126.000 136.939  0.00  0.00    +0.000 OA
ATOM     23  O   UNL     1     111.592 124.085 136.545  0.00  0.00    +0.000 OA
ATOM     24  O   UNL     1     113.218 123.910 136.321  0.00  0.00    +0.000 OA
ATOM     25  O   UNL     1     110.979 125.538 137.031  0.00  0.00    +0.000 OA
ATOM     26  C   UNL     1     112.098 124.724 136.676  0.00  0.00    +0.000 C 
ATOM     27  C   UNL     1     112.910 124.636 136.564  0.00  0.00    +0.000 C 
ATOM     28  C   UNL     1     111.791 125.450 136.919  0.00  0.00    +0.000 C 
ATOM     29  C   UNL     1     113.416 125.274 136.696  0.00  0.00    +0.000 C 
ATOM     30  C   UNL     1     112.296 126.088 137.051  0.00  0.00    +0.000 C 
ATOM     31  C   UNL     1     114.229 125.187 136.584  0.00  0.00    +0.000 C 
ENDBRANCH  21  30
ENDBRANCH   4  21
BRANCH   5  32
ATOM     32  O   UNL     1     114.370 128.929 140.684  0.00  0.00    +0.000 OA
BRANCH  32  40
ATOM     33  O   UNL     1     113.266 129.448 141.428  0.00  0.00    +0.000 OA
ATOM     34  O   UNL     1     114.355 131.670 141.495  0.00  0.00    +0.000 OA
ATOM     35  O   UNL     1     115.096 130.410 140.729  0.00  0.00    +0.000 OA
ATOM     36  O   UNL     1     112.888 131.449 142.216  0.00  0.00    +0.000 OA
ATOM     37  C   UNL     1     113.992 130.930 141.472  0.00  0.00    +0.000 C 
ATOM     38  C   UNL     1     114.363 130.300 141.089  0.00  0.00    +0.000 C 
ATOM     39  C   UNL     1     113.258 130.819 141.833  0.00  0.00    +0.000 C 
ATOM     40  C   UNL     1     114.000 129.559 141.067  0.00  0.00    +0.000 C 
ATOM     41  C   UNL     1     112.895 130.078 141.811  0.00  0.00    +0.000 C 
BRANCH  41  44
ATOM     42  O   UNL     1     111.470 130.167 141.770  0.00  0.00    +0.000 OA
ATOM     43  O   UNL     1     112.121 129.658 142.935  0.00  0.00    +0.000 OA
ATOM     44  C   UNL     1     112.162 129.968 142.172  0.00  0.00    +0.000 C 
ENDBRANCH  41  44
ENDBRANCH  32  40
ENDBRANCH   5  32
TORSDOF 6
ENDMDL
MODEL 2
REMARK VINA RESULT:     -10.6      1.410      2.739
REMARK  Name = 131751924
REMARK  6 active torsions:
REMARK  status: ('A' for Active; 'I' for Inactive)
REMARK    1  A    between atoms: O_3  and  C_22
REMARK    2  A    between atoms: O_3  and  C_30
REMARK    3  A    between atoms: O_7  and  C_26
REMARK    4  A    between atoms: O_7  and  C_31
REMARK    5  A    between atoms: C_27  and  C_29
REMARK    6  A    between atoms: C_34  and  C_39
REMARK                            x       y       z     vdW  Elec       q    Type
REMARK                         _______ _______ _______ _____ _____    ______ ____
ROOT
ATOM      1  O   UNL     1     113.446 126.281 138.747  0.00  0.00    +0.000 OA
ATOM      2  O   UNL     1     111.044 125.843 138.346  0.00  0.00    +0.000 OA
ATOM      3  O   UNL     1     110.693 126.448 139.608  0.00  0.00    +0.000 OA
ATOM      4  C   UNL     1     112.405 125.760 137.920  0.00  0.00    +0.000 A 
ATOM      5  C   UNL     1     112.570 127.142 140.614  0.00  0.00    +0.000 A 
ATOM      6  C   UNL     1     112.085 126.364 139.174  0.00  0.00    +0.000 A 
ATOM      7  C   UNL     1     111.845 125.989 138.479  0.00  0.00    +0.000 A 
ATOM      8  C   UNL     1     113.206 125.906 138.053  0.00  0.00    +0.000 A 
ATOM      9  C   UNL     1     112.886 126.511 139.308  0.00  0.00    +0.000 A 
ATOM     10  C   UNL     1     113.148 126.901 140.027  0.00  0.00    +0.000 A 
ATOM     11  C   UNL     1     111.735 126.990 140.475  0.00  0.00    +0.000 A 
ATOM     12  C   UNL     1     111.491 126.598 139.749  0.00  0.00    +0.000 A 
ENDROOT
BRANCH   8  15
ATOM     13  O   UNL     1     114.981 126.569 135.913  0.00  0.00    +0.000 OA
ATOM     14  O   UNL     1     115.448 124.990 135.812  0.00  0.00    +0.000 OA
ATOM     15  C   UNL     1     113.766 125.677 137.493  0.00  0.00    +0.000 A 
ATOM     16  C   UNL     1     114.093 126.237 136.984  0.00  0.00    +0.000 A 
ATOM     17  C   UNL     1     114.001 124.887 137.442  0.00  0.00    +0.000 A 
ATOM     18  C   UNL     1     114.654 126.008 136.423  0.00  0.00    +0.000 A 
ATOM     19  C   UNL     1     114.561 124.658 136.882  0.00  0.00    +0.000 A 
ATOM     20  C   UNL     1     114.888 125.219 136.373  0.00  0.00    +0.000 A 
ENDBRANCH   8  15
BRANCH   4  21
ATOM     21  O   UNL     1     112.165 125.384 137.225  0.00  0.00    +0.000 OA
BRANCH  21  30
ATOM     22  O   UNL     1     111.678 126.593 136.638  0.00  0.00    +0.000 OA
ATOM     23  O   UNL     1     110.094 125.284 135.258  0.00  0.00    +0.000 OA
ATOM     24  O   UNL     1     110.135 126.929 135.131  0.00  0.00    +0.000 OA
ATOM     25  O   UNL     1     111.109 124.512 136.305  0.00  0.00    +0.000 OA
ATOM     26  C   UNL     1     110.622 125.721 135.718  0.00  0.00    +0.000 C 
ATOM     27  C   UNL     1     110.643 126.542 135.655  0.00  0.00    +0.000 C 
ATOM     28  C   UNL     1     111.129 125.334 136.242  0.00  0.00    +0.000 C 
ATOM     29  C   UNL     1     111.171 126.978 136.115  0.00  0.00    +0.000 C 
ATOM     30  C   UNL     1     111.657 125.770 136.702  0.00  0.00    +0.000 C 
ATOM     31  C   UNL     1     111.192 127.801 136.051  0.00  0.00    +0.000 C 
ENDBRANCH  21  30
ENDBRANCH   4  21
BRANCH   5  32
ATOM     32  O   UNL     1     112.813 127.517 141.307  0.00  0.00    +0.000 OA
BRANCH  32  40
ATOM     33  O   UNL     1     113.121 128.806 140.772  0.00  0.00    +0.000 OA
ATOM     34  O   UNL     1     112.022 129.876 142.715  0.00  0.00    +0.000 OA
ATOM     35  O   UNL     1     112.081 128.231 142.602  0.00  0.00    +0.000 OA
ATOM     36  O   UNL     1     112.697 130.808 141.532  0.00  0.00    +0.000 OA
ATOM     37  C   UNL     1     112.389 129.520 142.067  0.00  0.00    +0.000 C 
ATOM     38  C   UNL     1     112.418 128.697 142.011  0.00  0.00    +0.000 C 
ATOM     39  C   UNL     1     112.726 129.985 141.476  0.00  0.00    +0.000 C 
ATOM     40  C   UNL     1     112.784 128.340 141.364  0.00  0.00    +0.000 C 
ATOM     41  C   UNL     1     113.092 129.629 140.828  0.00  0.00    +0.000 C 
BRANCH  41  44
ATOM     42  O   UNL     1     112.955 130.415 139.643  0.00  0.00    +0.000 OA
ATOM     43  O   UNL     1     114.241 130.241 140.241  0.00  0.00    +0.000 OA
ATOM     44  C   UNL     1     113.429 130.095 140.237  0.00  0.00    +0.000 C 
ENDBRANCH  41  44
ENDBRANCH  32  40
ENDBRANCH   5  32
TORSDOF 6
ENDMDL
MODEL 3
REMARK VINA RESULT:     -10.5      7.219      9.616
REMARK  Name = 131751924
REMARK  6 active torsions:
REMARK  status: ('A' for Active; 'I' for Inactive)
REMARK    1  A    between atoms: O_3  and  C_22
REMARK    2  A    between atoms: O_3  and  C_30
REMARK    3  A    between atoms: O_7  and  C_26
REMARK    4  A    between atoms: O_7  and  C_31
REMARK    5  A    between atoms: C_27  and  C_29
REMARK    6  A    between atoms: C_34  and  C_39
REMARK                            x       y       z     vdW  Elec       q    Type
REMARK                         _______ _______ _______ _____ _____    ______ ____
ROOT
ATOM      1  O   UNL     1     105.004 127.561 142.661  0.00  0.00    +0.000 OA
ATOM      2  O   UNL     1     107.289 128.248 142.001  0.00  0.00    +0.000 OA
ATOM      3  O   UNL     1     107.832 126.997 142.471  0.00  0.00    +0.000 OA
ATOM      4  C   UNL     1     105.890 128.528 142.095  0.00  0.00    +0.000 A 
ATOM      5  C   UNL     1     106.158 125.751 143.283  0.00  0.00    +0.000 A 
ATOM      6  C   UNL     1     106.403 127.281 142.567  0.00  0.00    +0.000 A 
ATOM      7  C   UNL     1     106.527 128.020 142.221  0.00  0.00    +0.000 A 
ATOM      8  C   UNL     1     105.129 128.299 142.314  0.00  0.00    +0.000 A 
ATOM      9  C   UNL     1     105.642 127.051 142.787  0.00  0.00    +0.000 A 
ATOM     10  C   UNL     1     105.499 126.285 143.149  0.00  0.00    +0.000 A 
ATOM     11  C   UNL     1     106.952 125.989 143.054  0.00  0.00    +0.000 A 
ATOM     12  C   UNL     1     107.074 126.760 142.694  0.00  0.00    +0.000 A 
ENDROOT
BRANCH   8  15
ATOM     13  O   UNL     1     103.242 130.199 143.315  0.00  0.00    +0.000 OA
ATOM     14  O   UNL     1     102.581 130.334 141.810  0.00  0.00    +0.000 OA
ATOM     15  C   UNL     1     104.492 128.807 142.188  0.00  0.00    +0.000 A 
ATOM     16  C   UNL     1     104.186 129.248 142.814  0.00  0.00    +0.000 A 
ATOM     17  C   UNL     1     104.160 128.875 141.435  0.00  0.00    +0.000 A 
ATOM     18  C   UNL     1     103.548 129.758 142.688  0.00  0.00    +0.000 A 
ATOM     19  C   UNL     1     103.524 129.384 141.309  0.00  0.00    +0.000 A 
ATOM     20  C   UNL     1     103.218 129.825 141.936  0.00  0.00    +0.000 A 
ENDBRANCH   8  15
BRANCH   4  21
ATOM     21  O   UNL     1     106.015 129.266 141.748  0.00  0.00    +0.000 OA
BRANCH  21  30
ATOM     22  O   UNL     1     106.568 129.867 142.921  0.00  0.00    +0.000 OA
ATOM     23  O   UNL     1     108.012 131.296 141.508  0.00  0.00    +0.000 OA
ATOM     24  O   UNL     1     108.084 131.420 143.152  0.00  0.00    +0.000 OA
ATOM     25  O   UNL     1     106.978 130.219 140.806  0.00  0.00    +0.000 OA
ATOM     26  C   UNL     1     107.531 130.820 141.979  0.00  0.00    +0.000 C 
ATOM     27  C   UNL     1     107.567 130.882 142.800  0.00  0.00    +0.000 C 
ATOM     28  C   UNL     1     107.014 130.281 141.627  0.00  0.00    +0.000 C 
ATOM     29  C   UNL     1     107.085 130.405 143.271  0.00  0.00    +0.000 C 
ATOM     30  C   UNL     1     106.532 129.805 142.098  0.00  0.00    +0.000 C 
ATOM     31  C   UNL     1     107.121 130.468 144.094  0.00  0.00    +0.000 C 
ENDBRANCH  21  30
ENDBRANCH   4  21
BRANCH   5  32
ATOM     32  O   UNL     1     106.031 125.013 143.630  0.00  0.00    +0.000 OA
BRANCH  32  40
ATOM     33  O   UNL     1     106.394 125.383 144.962  0.00  0.00    +0.000 OA
ATOM     34  O   UNL     1     104.608 123.920 145.856  0.00  0.00    +0.000 OA
ATOM     35  O   UNL     1     104.840 124.038 144.226  0.00  0.00    +0.000 OA
ATOM     36  O   UNL     1     105.566 124.777 146.890  0.00  0.00    +0.000 OA
ATOM     37  C   UNL     1     105.203 124.408 145.558  0.00  0.00    +0.000 C 
ATOM     38  C   UNL     1     105.319 124.466 144.743  0.00  0.00    +0.000 C 
ATOM     39  C   UNL     1     105.683 124.837 146.074  0.00  0.00    +0.000 C 
ATOM     40  C   UNL     1     105.914 124.954 144.445  0.00  0.00    +0.000 C 
ATOM     41  C   UNL     1     106.278 125.324 145.776  0.00  0.00    +0.000 C 
BRANCH  41  44
ATOM     42  O   UNL     1     106.521 126.499 146.553  0.00  0.00    +0.000 OA
ATOM     43  O   UNL     1     107.472 125.433 146.552  0.00  0.00    +0.000 OA
ATOM     44  C   UNL     1     106.757 125.752 146.294  0.00  0.00    +0.000 C 
ENDBRANCH  41  44
ENDBRANCH  32  40
ENDBRANCH   5  32
TORSDOF 6
ENDMDL
MODEL 4
REMARK VINA RESULT:     -10.5      1.448      5.748
REMARK  Name = 131751924
REMARK  6 active torsions:
REMARK  status: ('A' for Active; 'I' for Inactive)
REMARK    1  A    between atoms: O_3  and  C_22
REMARK    2  A    between atoms: O_3  and  C_30
REMARK    3  A    between atoms: O_7  and  C_26
REMARK    4  A    between atoms: O_7  and  C_31
REMARK    5  A    between atoms: C_27  and  C_29
REMARK    6  A    between atoms: C_34  and  C_39
REMARK                            x       y       z     vdW  Elec       q    Type
REMARK                         _______ _______ _______ _____ _____    ______ ____
ROOT
ATOM      1  O   UNL     1     112.588 128.580 138.267  0.00  0.00    +0.000 OA
ATOM      2  O   UNL     1     114.105 128.622 140.223  0.00  0.00    +0.000 OA
ATOM      3  O   UNL     1     113.914 127.208 140.438  0.00  0.00    +0.000 OA
ATOM      4  C   UNL     1     113.449 129.301 139.150  0.00  0.00    +0.000 A 
ATOM      5  C   UNL     1     112.513 126.430 138.872  0.00  0.00    +0.000 A 
ATOM      6  C   UNL     1     113.243 127.901 139.340  0.00  0.00    +0.000 A 
ATOM      7  C   UNL     1     113.599 128.608 139.571  0.00  0.00    +0.000 A 
ATOM      8  C   UNL     1     112.944 129.288 138.498  0.00  0.00    +0.000 A 
ATOM      9  C   UNL     1     112.738 127.886 138.689  0.00  0.00    +0.000 A 
ATOM     10  C   UNL     1     112.362 127.155 138.438  0.00  0.00    +0.000 A 
ATOM     11  C   UNL     1     113.040 126.444 139.552  0.00  0.00    +0.000 A 
ATOM     12  C   UNL     1     113.408 127.185 139.787  0.00  0.00    +0.000 A 
ENDROOT
BRANCH   8  15
ATOM     13  O   UNL     1     111.192 131.441 137.820  0.00  0.00    +0.000 OA
ATOM     14  O   UNL     1     112.343 132.061 136.815  0.00  0.00    +0.000 OA
ATOM     15  C   UNL     1     112.794 129.981 138.077  0.00  0.00    +0.000 A 
ATOM     16  C   UNL     1     112.068 130.364 138.159  0.00  0.00    +0.000 A 
ATOM     17  C   UNL     1     113.370 130.291 137.574  0.00  0.00    +0.000 A 
ATOM     18  C   UNL     1     111.918 131.058 137.738  0.00  0.00    +0.000 A 
ATOM     19  C   UNL     1     113.220 130.984 137.154  0.00  0.00    +0.000 A 
ATOM     20  C   UNL     1     112.494 131.367 137.235  0.00  0.00    +0.000 A 
ENDBRANCH   8  15
BRANCH   4  21
ATOM     21  O   UNL     1     113.805 130.009 139.381  0.00  0.00    +0.000 OA
BRANCH  21  30
ATOM     22  O   UNL     1     112.939 130.194 140.502  0.00  0.00    +0.000 OA
ATOM     23  O   UNL     1     114.719 131.458 141.669  0.00  0.00    +0.000 OA
ATOM     24  O   UNL     1     113.259 131.222 142.401  0.00  0.00    +0.000 OA
ATOM     25  O   UNL     1     114.992 130.851 140.159  0.00  0.00    +0.000 OA
ATOM     26  C   UNL     1     114.125 131.037 141.280  0.00  0.00    +0.000 C 
ATOM     27  C   UNL     1     113.396 130.919 141.646  0.00  0.00    +0.000 C 
ATOM     28  C   UNL     1     114.262 130.733 140.525  0.00  0.00    +0.000 C 
ATOM     29  C   UNL     1     112.803 130.498 141.257  0.00  0.00    +0.000 C 
ATOM     30  C   UNL     1     113.669 130.312 140.136  0.00  0.00    +0.000 C 
ATOM     31  C   UNL     1     112.072 130.380 141.623  0.00  0.00    +0.000 C 
ENDBRANCH  21  30
ENDBRANCH   4  21
BRANCH   5  32
ATOM     32  O   UNL     1     112.156 125.724 138.639  0.00  0.00    +0.000 OA
BRANCH  32  40
ATOM     33  O   UNL     1     113.274 125.294 137.860  0.00  0.00    +0.000 OA
ATOM     34  O   UNL     1     111.753 124.025 136.376  0.00  0.00    +0.000 OA
ATOM     35  O   UNL     1     111.142 124.878 137.650  0.00  0.00    +0.000 OA
ATOM     36  O   UNL     1     113.378 124.017 136.091  0.00  0.00    +0.000 OA
ATOM     37  C   UNL     1     112.260 124.448 136.871  0.00  0.00    +0.000 C 
ATOM     38  C   UNL     1     111.954 124.874 137.507  0.00  0.00    +0.000 C 
ATOM     39  C   UNL     1     113.073 124.444 136.729  0.00  0.00    +0.000 C 
ATOM     40  C   UNL     1     112.461 125.297 138.002  0.00  0.00    +0.000 C 
ATOM     41  C   UNL     1     113.580 124.867 137.223  0.00  0.00    +0.000 C 
BRANCH  41  44
ATOM     42  O   UNL     1     114.718 125.388 136.534  0.00  0.00    +0.000 OA
ATOM     43  O   UNL     1     114.879 124.334 137.485  0.00  0.00    +0.000 OA
ATOM     44  C   UNL     1     114.392 124.864 137.081  0.00  0.00    +0.000 C 
ENDBRANCH  41  44
ENDBRANCH  32  40
ENDBRANCH   5  32
TORSDOF 6
ENDMDL
MODEL 5
REMARK VINA RESULT:     -10.4      2.144      4.544
REMARK  Name = 131751924
REMARK  6 active torsions:
REMARK  status: ('A' for Active; 'I' for Inactive)
REMARK    1  A    between atoms: O_3  and  C_22
REMARK    2  A    between atoms: O_3  and  C_30
REMARK    3  A    between atoms: O_7  and  C_26
REMARK    4  A    between atoms: O_7  and  C_31
REMARK    5  A    between atoms: C_27  and  C_29
REMARK    6  A    between atoms: C_34  and  C_39
REMARK                            x       y       z     vdW  Elec       q    Type
REMARK                         _______ _______ _______ _____ _____    ______ ____
ROOT
ATOM      1  O   UNL     1     112.456 128.433 138.472  0.00  0.00    +0.000 OA
ATOM      2  O   UNL     1     113.332 127.118 136.566  0.00  0.00    +0.000 OA
ATOM      3  O   UNL     1     112.866 128.112 135.629  0.00  0.00    +0.000 OA
ATOM      4  C   UNL     1     113.129 127.276 137.972  0.00  0.00    +0.000 A 
ATOM      5  C   UNL     1     111.871 129.761 136.773  0.00  0.00    +0.000 A 
ATOM      6  C   UNL     1     112.659 128.275 137.066  0.00  0.00    +0.000 A 
ATOM      7  C   UNL     1     113.040 127.556 137.202  0.00  0.00    +0.000 A 
ATOM      8  C   UNL     1     112.838 127.714 138.607  0.00  0.00    +0.000 A 
ATOM      9  C   UNL     1     112.367 128.714 137.701  0.00  0.00    +0.000 A 
ATOM     10  C   UNL     1     111.968 129.464 137.572  0.00  0.00    +0.000 A 
ATOM     11  C   UNL     1     112.175 129.305 136.110  0.00  0.00    +0.000 A 
ATOM     12  C   UNL     1     112.572 128.556 136.259  0.00  0.00    +0.000 A 
ENDROOT
BRANCH   8  15
ATOM     13  O   UNL     1     111.738 126.459 140.927  0.00  0.00    +0.000 OA
ATOM     14  O   UNL     1     113.194 126.592 141.689  0.00  0.00    +0.000 OA
ATOM     15  C   UNL     1     112.927 127.434 139.377  0.00  0.00    +0.000 A 
ATOM     16  C   UNL     1     112.288 127.086 139.767  0.00  0.00    +0.000 A 
ATOM     17  C   UNL     1     113.656 127.500 139.759  0.00  0.00    +0.000 A 
ATOM     18  C   UNL     1     112.377 126.806 140.538  0.00  0.00    +0.000 A 
ATOM     19  C   UNL     1     113.745 127.220 140.530  0.00  0.00    +0.000 A 
ATOM     20  C   UNL     1     113.106 126.872 140.919  0.00  0.00    +0.000 A 
ENDBRANCH   8  15
BRANCH   4  21
ATOM     21  O   UNL     1     113.511 126.557 138.107  0.00  0.00    +0.000 OA
BRANCH  21  30
ATOM     22  O   UNL     1     112.406 125.766 137.665  0.00  0.00    +0.000 OA
ATOM     23  O   UNL     1     113.967 123.983 136.952  0.00  0.00    +0.000 OA
ATOM     24  O   UNL     1     112.341 123.786 136.748  0.00  0.00    +0.000 OA
ATOM     25  O   UNL     1     114.552 125.368 137.632  0.00  0.00    +0.000 OA
ATOM     26  C   UNL     1     113.446 124.577 137.190  0.00  0.00    +0.000 C 
ATOM     27  C   UNL     1     112.634 124.479 137.088  0.00  0.00    +0.000 C 
ATOM     28  C   UNL     1     113.739 125.270 137.530  0.00  0.00    +0.000 C 
ATOM     29  C   UNL     1     112.114 125.073 137.326  0.00  0.00    +0.000 C 
ATOM     30  C   UNL     1     113.219 125.864 137.767  0.00  0.00    +0.000 C 
ATOM     31  C   UNL     1     111.300 124.975 137.223  0.00  0.00    +0.000 C 
ENDBRANCH  21  30
ENDBRANCH   4  21
BRANCH   5  32
ATOM     32  O   UNL     1     111.489 130.480 136.640  0.00  0.00    +0.000 OA
BRANCH  32  40
ATOM     33  O   UNL     1     110.191 129.940 136.387  0.00  0.00    +0.000 OA
ATOM     34  O   UNL     1     109.161 131.864 137.553  0.00  0.00    +0.000 OA
ATOM     35  O   UNL     1     110.802 131.763 137.418  0.00  0.00    +0.000 OA
ATOM     36  O   UNL     1     108.206 130.682 136.911  0.00  0.00    +0.000 OA
ATOM     37  C   UNL     1     109.504 131.223 137.165  0.00  0.00    +0.000 C 
ATOM     38  C   UNL     1     110.325 131.173 137.097  0.00  0.00    +0.000 C 
ATOM     39  C   UNL     1     109.027 130.631 136.843  0.00  0.00    +0.000 C 
ATOM     40  C   UNL     1     110.668 130.531 136.708  0.00  0.00    +0.000 C 
ATOM     41  C   UNL     1     109.370 129.990 136.455  0.00  0.00    +0.000 C 
BRANCH  41  44
ATOM     42  O   UNL     1     108.690 128.740 136.587  0.00  0.00    +0.000 OA
ATOM     43  O   UNL     1     108.617 129.467 135.360  0.00  0.00    +0.000 OA
ATOM     44  C   UNL     1     108.893 129.399 136.134  0.00  0.00    +0.000 C 
ENDBRANCH  41  44
ENDBRANCH  32  40
ENDBRANCH   5  32
TORSDOF 6
ENDMDL
MODEL 6
REMARK VINA RESULT:     -10.2      2.271      5.574
REMARK  Name = 131751924
REMARK  6 active torsions:
REMARK  status: ('A' for Active; 'I' for Inactive)
REMARK    1  A    between atoms: O_3  and  C_22
REMARK    2  A    between atoms: O_3  and  C_30
REMARK    3  A    between atoms: O_7  and  C_26
REMARK    4  A    between atoms: O_7  and  C_31
REMARK    5  A    between atoms: C_27  and  C_29
REMARK    6  A    between atoms: C_34  and  C_39
REMARK                            x       y       z     vdW  Elec       q    Type
REMARK                         _______ _______ _______ _____ _____    ______ ____
ROOT
ATOM      1  O   UNL     1     111.273 128.787 136.205  0.00  0.00    +0.000 OA
ATOM      2  O   UNL     1     112.193 129.788 138.273  0.00  0.00    +0.000 OA
ATOM      3  O   UNL     1     113.281 128.841 138.282  0.00  0.00    +0.000 OA
ATOM      4  C   UNL     1     111.199 129.763 137.246  0.00  0.00    +0.000 A 
ATOM      5  C   UNL     1     113.062 127.485 136.513  0.00  0.00    +0.000 A 
ATOM      6  C   UNL     1     112.266 128.813 137.232  0.00  0.00    +0.000 A 
ATOM      7  C   UNL     1     111.886 129.455 137.584  0.00  0.00    +0.000 A 
ATOM      8  C   UNL     1     110.892 129.429 136.557  0.00  0.00    +0.000 A 
ATOM      9  C   UNL     1     111.960 128.479 136.542  0.00  0.00    +0.000 A 
ATOM     10  C   UNL     1     112.347 127.810 136.167  0.00  0.00    +0.000 A 
ATOM     11  C   UNL     1     113.382 127.832 137.231  0.00  0.00    +0.000 A 
ATOM     12  C   UNL     1     112.981 128.501 137.593  0.00  0.00    +0.000 A 
ENDROOT
BRANCH   8  15
ATOM     13  O   UNL     1     108.098 129.213 135.997  0.00  0.00    +0.000 OA
ATOM     14  O   UNL     1     108.145 130.660 135.207  0.00  0.00    +0.000 OA
ATOM     15  C   UNL     1     110.206 129.737 136.219  0.00  0.00    +0.000 A 
ATOM     16  C   UNL     1     109.496 129.321 136.277  0.00  0.00    +0.000 A 
ATOM     17  C   UNL     1     110.229 130.461 135.824  0.00  0.00    +0.000 A 
ATOM     18  C   UNL     1     108.808 129.629 135.939  0.00  0.00    +0.000 A 
ATOM     19  C   UNL     1     109.542 130.769 135.487  0.00  0.00    +0.000 A 
ATOM     20  C   UNL     1     108.832 130.353 135.544  0.00  0.00    +0.000 A 
ENDBRANCH   8  15
BRANCH   4  21
ATOM     21  O   UNL     1     110.819 130.405 137.598  0.00  0.00    +0.000 OA
BRANCH  21  30
ATOM     22  O   UNL     1     110.249 129.643 138.664  0.00  0.00    +0.000 OA
ATOM     23  O   UNL     1     110.396 131.615 140.152  0.00  0.00    +0.000 OA
ATOM     24  O   UNL     1     109.776 130.196 140.722  0.00  0.00    +0.000 OA
ATOM     25  O   UNL     1     110.917 131.719 138.590  0.00  0.00    +0.000 OA
ATOM     26  C   UNL     1     110.347 130.958 139.656  0.00  0.00    +0.000 C 
ATOM     27  C   UNL     1     110.037 130.248 139.941  0.00  0.00    +0.000 C 
ATOM     28  C   UNL     1     110.608 131.010 138.875  0.00  0.00    +0.000 C 
ATOM     29  C   UNL     1     109.988 129.591 139.445  0.00  0.00    +0.000 C 
ATOM     30  C   UNL     1     110.559 130.353 138.379  0.00  0.00    +0.000 C 
ATOM     31  C   UNL     1     109.679 128.881 139.730  0.00  0.00    +0.000 C 
ENDBRANCH  21  30
ENDBRANCH   4  21
BRANCH   5  32
ATOM     32  O   UNL     1     113.440 126.843 136.159  0.00  0.00    +0.000 OA
BRANCH  32  40
ATOM     33  O   UNL     1     112.513 125.807 136.492  0.00  0.00    +0.000 OA
ATOM     34  O   UNL     1     114.394 124.315 137.094  0.00  0.00    +0.000 OA
ATOM     35  O   UNL     1     114.694 125.848 136.560  0.00  0.00    +0.000 OA
ATOM     36  O   UNL     1     112.840 123.777 137.226  0.00  0.00    +0.000 OA
ATOM     37  C   UNL     1     113.767 124.813 136.893  0.00  0.00    +0.000 C 
ATOM     38  C   UNL     1     113.917 125.579 136.626  0.00  0.00    +0.000 C 
ATOM     39  C   UNL     1     112.989 124.544 136.959  0.00  0.00    +0.000 C 
ATOM     40  C   UNL     1     113.290 126.076 136.426  0.00  0.00    +0.000 C 
ATOM     41  C   UNL     1     112.362 125.041 136.758  0.00  0.00    +0.000 C 
BRANCH  41  44
ATOM     42  O   UNL     1     111.198 124.806 137.552  0.00  0.00    +0.000 OA
ATOM     43  O   UNL     1     111.197 124.469 136.163  0.00  0.00    +0.000 OA
ATOM     44  C   UNL     1     111.586 124.772 136.825  0.00  0.00    +0.000 C 
ENDBRANCH  41  44
ENDBRANCH  32  40
ENDBRANCH   5  32
TORSDOF 6
ENDMDL
MODEL 7
REMARK VINA RESULT:     -10.1      2.595      4.791
REMARK  Name = 131751924
REMARK  6 active torsions:
REMARK  status: ('A' for Active; 'I' for Inactive)
REMARK    1  A    between atoms: O_3  and  C_22
REMARK    2  A    between atoms: O_3  and  C_30
REMARK    3  A    between atoms: O_7  and  C_26
REMARK    4  A    between atoms: O_7  and  C_31
REMARK    5  A    between atoms: C_27  and  C_29
REMARK    6  A    between atoms: C_34  and  C_39
REMARK                            x       y       z     vdW  Elec       q    Type
REMARK                         _______ _______ _______ _____ _____    ______ ____
ROOT
ATOM      1  O   UNL     1     112.019 129.403 135.513  0.00  0.00    +0.000 OA
ATOM      2  O   UNL     1     111.763 127.022 136.139  0.00  0.00    +0.000 OA
ATOM      3  O   UNL     1     110.327 127.121 136.041  0.00  0.00    +0.000 OA
ATOM      4  C   UNL     1     112.601 128.150 135.878  0.00  0.00    +0.000 A 
ATOM      5  C   UNL     1     109.793 129.215 135.453  0.00  0.00    +0.000 A 
ATOM      6  C   UNL     1     111.182 128.275 135.774  0.00  0.00    +0.000 A 
ATOM      7  C   UNL     1     111.849 127.816 135.930  0.00  0.00    +0.000 A 
ATOM      8  C   UNL     1     112.686 128.944 135.669  0.00  0.00    +0.000 A 
ATOM      9  C   UNL     1     111.266 129.069 135.565  0.00  0.00    +0.000 A 
ATOM     10  C   UNL     1     110.579 129.557 135.400  0.00  0.00    +0.000 A 
ATOM     11  C   UNL     1     109.704 128.388 135.670  0.00  0.00    +0.000 A 
ATOM     12  C   UNL     1     110.403 127.915 135.832  0.00  0.00    +0.000 A 
ENDROOT
BRANCH   8  15
ATOM     13  O   UNL     1     114.733 130.615 136.759  0.00  0.00    +0.000 OA
ATOM     14  O   UNL     1     115.695 130.283 135.461  0.00  0.00    +0.000 OA
ATOM     15  C   UNL     1     113.438 129.279 135.617  0.00  0.00    +0.000 A 
ATOM     16  C   UNL     1     113.709 129.779 136.214  0.00  0.00    +0.000 A 
ATOM     17  C   UNL     1     113.920 129.113 134.968  0.00  0.00    +0.000 A 
ATOM     18  C   UNL     1     114.462 130.114 136.162  0.00  0.00    +0.000 A 
ATOM     19  C   UNL     1     114.672 129.447 134.916  0.00  0.00    +0.000 A 
ATOM     20  C   UNL     1     114.943 129.948 135.513  0.00  0.00    +0.000 A 
ENDBRANCH   8  15
BRANCH   4  21
ATOM     21  O   UNL     1     113.268 127.691 136.034  0.00  0.00    +0.000 OA
BRANCH  21  30
ATOM     22  O   UNL     1     113.077 127.680 137.450  0.00  0.00    +0.000 OA
ATOM     23  O   UNL     1     114.122 125.440 137.574  0.00  0.00    +0.000 OA
ATOM     24  O   UNL     1     113.583 126.176 138.949  0.00  0.00    +0.000 OA
ATOM     25  O   UNL     1     113.965 126.198 136.117  0.00  0.00    +0.000 OA
ATOM     26  C   UNL     1     113.774 126.187 137.533  0.00  0.00    +0.000 C 
ATOM     27  C   UNL     1     113.504 126.554 138.220  0.00  0.00    +0.000 C 
ATOM     28  C   UNL     1     113.695 126.565 136.804  0.00  0.00    +0.000 C 
ATOM     29  C   UNL     1     113.156 127.301 138.179  0.00  0.00    +0.000 C 
ATOM     30  C   UNL     1     113.347 127.312 136.762  0.00  0.00    +0.000 C 
ATOM     31  C   UNL     1     112.886 127.669 138.867  0.00  0.00    +0.000 C 
ENDBRANCH  21  30
ENDBRANCH   4  21
BRANCH   5  32
ATOM     32  O   UNL     1     109.128 129.677 135.296  0.00  0.00    +0.000 OA
BRANCH  32  40
ATOM     33  O   UNL     1     109.083 130.170 136.636  0.00  0.00    +0.000 OA
ATOM     34  O   UNL     1     107.752 132.114 135.877  0.00  0.00    +0.000 OA
ATOM     35  O   UNL     1     108.240 130.973 134.790  0.00  0.00    +0.000 OA
ATOM     36  O   UNL     1     108.151 131.959 137.470  0.00  0.00    +0.000 OA
ATOM     37  C   UNL     1     108.195 131.466 136.130  0.00  0.00    +0.000 C 
ATOM     38  C   UNL     1     108.439 130.896 135.586  0.00  0.00    +0.000 C 
ATOM     39  C   UNL     1     108.395 131.388 136.927  0.00  0.00    +0.000 C 
ATOM     40  C   UNL     1     108.883 130.248 135.839  0.00  0.00    +0.000 C 
ATOM     41  C   UNL     1     108.839 130.740 137.180  0.00  0.00    +0.000 C 
BRANCH  41  44
ATOM     42  O   UNL     1     109.689 131.068 138.280  0.00  0.00    +0.000 OA
ATOM     43  O   UNL     1     108.585 130.181 138.469  0.00  0.00    +0.000 OA
ATOM     44  C   UNL     1     109.038 130.664 137.976  0.00  0.00    +0.000 C 
ENDBRANCH  41  44
ENDBRANCH  32  40
ENDBRANCH   5  32
TORSDOF 6
ENDMDL
MODEL 8
REMARK VINA RESULT:     -10.0      2.005      5.992
REMARK  Name = 131751924
REMARK  6 active torsions:
REMARK  status: ('A' for Active; 'I' for Inactive)
REMARK    1  A    between atoms: O_3  and  C_22
REMARK    2  A    between atoms: O_3  and  C_30
REMARK    3  A    between atoms: O_7  and  C_26
REMARK    4  A    between atoms: O_7  and  C_31
REMARK    5  A    between atoms: C_27  and  C_29
REMARK    6  A    between atoms: C_34  and  C_39
REMARK                            x       y       z     vdW  Elec       q    Type
REMARK                         _______ _______ _______ _____ _____    ______ ____
ROOT
ATOM      1  O   UNL     1     112.947 128.475 139.164  0.00  0.00    +0.000 OA
ATOM      2  O   UNL     1     111.446 129.466 137.464  0.00  0.00    +0.000 OA
ATOM      3  O   UNL     1     110.948 128.161 137.102  0.00  0.00    +0.000 OA
ATOM      4  C   UNL     1     112.434 129.622 138.484  0.00  0.00    +0.000 A 
ATOM      5  C   UNL     1     111.975 126.627 138.370  0.00  0.00    +0.000 A 
ATOM      6  C   UNL     1     111.959 128.319 138.145  0.00  0.00    +0.000 A 
ATOM      7  C   UNL     1     111.946 129.136 138.031  0.00  0.00    +0.000 A 
ATOM      8  C   UNL     1     112.935 129.293 139.051  0.00  0.00    +0.000 A 
ATOM      9  C   UNL     1     112.459 127.988 138.711  0.00  0.00    +0.000 A 
ATOM     10  C   UNL     1     112.480 127.139 138.839  0.00  0.00    +0.000 A 
ATOM     11  C   UNL     1     111.453 126.970 137.780  0.00  0.00    +0.000 A 
ATOM     12  C   UNL     1     111.445 127.823 137.666  0.00  0.00    +0.000 A 
ENDROOT
BRANCH   8  15
ATOM     13  O   UNL     1     113.556 130.542 141.545  0.00  0.00    +0.000 OA
ATOM     14  O   UNL     1     114.887 131.238 140.864  0.00  0.00    +0.000 OA
ATOM     15  C   UNL     1     113.423 129.779 139.503  0.00  0.00    +0.000 A 
ATOM     16  C   UNL     1     113.245 129.917 140.297  0.00  0.00    +0.000 A 
ATOM     17  C   UNL     1     114.089 130.128 139.164  0.00  0.00    +0.000 A 
ATOM     18  C   UNL     1     113.734 130.404 140.751  0.00  0.00    +0.000 A 
ATOM     19  C   UNL     1     114.577 130.614 139.616  0.00  0.00    +0.000 A 
ATOM     20  C   UNL     1     114.400 130.752 140.410  0.00  0.00    +0.000 A 
ENDBRANCH   8  15
BRANCH   4  21
ATOM     21  O   UNL     1     112.422 130.439 138.370  0.00  0.00    +0.000 OA
BRANCH  21  30
ATOM     22  O   UNL     1     111.188 130.652 139.058  0.00  0.00    +0.000 OA
ATOM     23  O   UNL     1     110.659 132.525 137.529  0.00  0.00    +0.000 OA
ATOM     24  O   UNL     1     109.600 132.113 138.726  0.00  0.00    +0.000 OA
ATOM     25  O   UNL     1     112.070 131.688 137.351  0.00  0.00    +0.000 OA
ATOM     26  C   UNL     1     110.835 131.901 138.039  0.00  0.00    +0.000 C 
ATOM     27  C   UNL     1     110.306 131.695 138.637  0.00  0.00    +0.000 C 
ATOM     28  C   UNL     1     111.541 131.482 137.949  0.00  0.00    +0.000 C 
ATOM     29  C   UNL     1     110.482 131.071 139.146  0.00  0.00    +0.000 C 
ATOM     30  C   UNL     1     111.717 130.858 138.459  0.00  0.00    +0.000 C 
ATOM     31  C   UNL     1     109.953 130.864 139.745  0.00  0.00    +0.000 C 
ENDBRANCH  21  30
ENDBRANCH   4  21
BRANCH   5  32
ATOM     32  O   UNL     1     111.989 125.810 138.486  0.00  0.00    +0.000 OA
BRANCH  32  40
ATOM     33  O   UNL     1     113.168 125.482 137.749  0.00  0.00    +0.000 OA
ATOM     34  O   UNL     1     111.999 123.549 136.738  0.00  0.00    +0.000 OA
ATOM     35  O   UNL     1     111.210 124.522 137.812  0.00  0.00    +0.000 OA
ATOM     36  O   UNL     1     113.568 123.864 136.338  0.00  0.00    +0.000 OA
ATOM     37  C   UNL     1     112.389 124.193 137.075  0.00  0.00    +0.000 C 
ATOM     38  C   UNL     1     111.994 124.679 137.612  0.00  0.00    +0.000 C 
ATOM     39  C   UNL     1     113.174 124.351 136.875  0.00  0.00    +0.000 C 
ATOM     40  C   UNL     1     112.384 125.323 137.949  0.00  0.00    +0.000 C 
ATOM     41  C   UNL     1     113.563 124.996 137.212  0.00  0.00    +0.000 C 
BRANCH  41  44
ATOM     42  O   UNL     1     114.520 125.642 136.370  0.00  0.00    +0.000 OA
ATOM     43  O   UNL     1     114.960 124.821 137.453  0.00  0.00    +0.000 OA
ATOM     44  C   UNL     1     114.348 125.153 137.012  0.00  0.00    +0.000 C 
ENDBRANCH  41  44
ENDBRANCH  32  40
ENDBRANCH   5  32
TORSDOF 6
ENDMDL
MODEL 9
REMARK VINA RESULT:     -10.0      1.662      2.286
REMARK  Name = 131751924
REMARK  6 active torsions:
REMARK  status: ('A' for Active; 'I' for Inactive)
REMARK    1  A    between atoms: O_3  and  C_22
REMARK    2  A    between atoms: O_3  and  C_30
REMARK    3  A    between atoms: O_7  and  C_26
REMARK    4  A    between atoms: O_7  and  C_31
REMARK    5  A    between atoms: C_27  and  C_29
REMARK    6  A    between atoms: C_34  and  C_39
REMARK                            x       y       z     vdW  Elec       q    Type
REMARK                         _______ _______ _______ _____ _____    ______ ____
ROOT
ATOM      1  O   UNL     1     112.332 128.530 138.064  0.00  0.00    +0.000 OA
ATOM      2  O   UNL     1     111.666 126.154 138.247  0.00  0.00    +0.000 OA
ATOM      3  O   UNL     1     111.225 126.352 139.607  0.00  0.00    +0.000 OA
ATOM      4  C   UNL     1     112.213 127.230 137.484  0.00  0.00    +0.000 A 
ATOM      5  C   UNL     1     111.566 128.494 140.163  0.00  0.00    +0.000 A 
ATOM      6  C   UNL     1     111.785 127.454 138.828  0.00  0.00    +0.000 A 
ATOM      7  C   UNL     1     111.888 126.946 138.186  0.00  0.00    +0.000 A 
ATOM      8  C   UNL     1     112.436 128.023 137.422  0.00  0.00    +0.000 A 
ATOM      9  C   UNL     1     112.007 128.246 138.768  0.00  0.00    +0.000 A 
ATOM     10  C   UNL     1     111.904 128.784 139.429  0.00  0.00    +0.000 A 
ATOM     11  C   UNL     1     111.334 127.669 140.227  0.00  0.00    +0.000 A 
ATOM     12  C   UNL     1     111.445 127.145 139.554  0.00  0.00    +0.000 A 
ENDROOT
BRANCH   8  15
ATOM     13  O   UNL     1     112.110 128.908 134.725  0.00  0.00    +0.000 OA
ATOM     14  O   UNL     1     113.736 129.161 134.612  0.00  0.00    +0.000 OA
ATOM     15  C   UNL     1     112.761 128.307 136.720  0.00  0.00    +0.000 A 
ATOM     16  C   UNL     1     112.273 128.465 136.074  0.00  0.00    +0.000 A 
ATOM     17  C   UNL     1     113.574 128.434 136.663  0.00  0.00    +0.000 A 
ATOM     18  C   UNL     1     112.598 128.750 135.371  0.00  0.00    +0.000 A 
ATOM     19  C   UNL     1     113.899 128.718 135.961  0.00  0.00    +0.000 A 
ATOM     20  C   UNL     1     113.411 128.877 135.315  0.00  0.00    +0.000 A 
ENDBRANCH   8  15
BRANCH   4  21
ATOM     21  O   UNL     1     112.316 126.723 136.842  0.00  0.00    +0.000 OA
BRANCH  21  30
ATOM     22  O   UNL     1     113.454 126.055 137.391  0.00  0.00    +0.000 OA
ATOM     23  O   UNL     1     112.787 123.969 136.237  0.00  0.00    +0.000 OA
ATOM     24  O   UNL     1     114.147 123.997 137.171  0.00  0.00    +0.000 OA
ATOM     25  O   UNL     1     111.871 125.332 136.073  0.00  0.00    +0.000 OA
ATOM     26  C   UNL     1     113.009 124.665 136.622  0.00  0.00    +0.000 C 
ATOM     27  C   UNL     1     113.689 124.678 137.088  0.00  0.00    +0.000 C 
ATOM     28  C   UNL     1     112.551 125.346 136.539  0.00  0.00    +0.000 C 
ATOM     29  C   UNL     1     113.912 125.373 137.472  0.00  0.00    +0.000 C 
ATOM     30  C   UNL     1     112.774 126.041 136.923  0.00  0.00    +0.000 C 
ATOM     31  C   UNL     1     114.592 125.387 137.939  0.00  0.00    +0.000 C 
ENDBRANCH  21  30
ENDBRANCH   4  21
BRANCH   5  32
ATOM     32  O   UNL     1     111.464 129.004 140.804  0.00  0.00    +0.000 OA
BRANCH  32  40
ATOM     33  O   UNL     1     110.122 129.396 140.507  0.00  0.00    +0.000 OA
ATOM     34  O   UNL     1     110.626 131.699 141.258  0.00  0.00    +0.000 OA
ATOM     35  O   UNL     1     111.800 130.540 141.304  0.00  0.00    +0.000 OA
ATOM     36  O   UNL     1     109.116 131.323 140.712  0.00  0.00    +0.000 OA
ATOM     37  C   UNL     1     110.458 130.931 141.008  0.00  0.00    +0.000 C 
ATOM     38  C   UNL     1     111.045 130.352 141.031  0.00  0.00    +0.000 C 
ATOM     39  C   UNL     1     109.703 130.743 140.734  0.00  0.00    +0.000 C 
ATOM     40  C   UNL     1     110.877 129.584 140.781  0.00  0.00    +0.000 C 
ATOM     41  C   UNL     1     109.535 129.975 140.484  0.00  0.00    +0.000 C 
BRANCH  41  44
ATOM     42  O   UNL     1     108.229 129.445 140.721  0.00  0.00    +0.000 OA
ATOM     43  O   UNL     1     108.575 129.941 139.427  0.00  0.00    +0.000 OA
ATOM     44  C   UNL     1     108.780 129.787 140.211  0.00  0.00    +0.000 C 
ENDBRANCH  41  44
ENDBRANCH  32  40
ENDBRANCH   5  32
TORSDOF 6
ENDMDL
MODEL 10
REMARK VINA RESULT:      -9.9      2.067      4.919
REMARK  Name = 131751924
REMARK  6 active torsions:
REMARK  status: ('A' for Active; 'I' for Inactive)
REMARK    1  A    between atoms: O_3  and  C_22
REMARK    2  A    between atoms: O_3  and  C_30
REMARK    3  A    between atoms: O_7  and  C_26
REMARK    4  A    between atoms: O_7  and  C_31
REMARK    5  A    between atoms: C_27  and  C_29
REMARK    6  A    between atoms: C_34  and  C_39
REMARK                            x       y       z     vdW  Elec       q    Type
REMARK                         _______ _______ _______ _____ _____    ______ ____
ROOT
ATOM      1  O   UNL     1     112.310 127.560 136.815  0.00  0.00    +0.000 OA
ATOM      2  O   UNL     1     113.254 128.550 138.878  0.00  0.00    +0.000 OA
ATOM      3  O   UNL     1     112.778 129.859 138.502  0.00  0.00    +0.000 OA
ATOM      4  C   UNL     1     113.023 127.413 138.044  0.00  0.00    +0.000 A 
ATOM      5  C   UNL     1     111.718 129.697 136.535  0.00  0.00    +0.000 A 
ATOM      6  C   UNL     1     112.541 128.698 137.648  0.00  0.00    +0.000 A 
ATOM      7  C   UNL     1     112.939 128.220 138.190  0.00  0.00    +0.000 A 
ATOM      8  C   UNL     1     112.708 127.082 137.357  0.00  0.00    +0.000 A 
ATOM      9  C   UNL     1     112.226 128.368 136.961  0.00  0.00    +0.000 A 
ATOM     10  C   UNL     1     111.809 128.856 136.389  0.00  0.00    +0.000 A 
ATOM     11  C   UNL     1     112.046 130.041 137.251  0.00  0.00    +0.000 A 
ATOM     12  C   UNL     1     112.460 129.537 137.812  0.00  0.00    +0.000 A 
ENDROOT
BRANCH   8  15
ATOM     13  O   UNL     1     111.584 124.457 137.251  0.00  0.00    +0.000 OA
ATOM     14  O   UNL     1     113.041 123.852 136.773  0.00  0.00    +0.000 OA
ATOM     15  C   UNL     1     112.792 126.275 137.211  0.00  0.00    +0.000 A 
ATOM     16  C   UNL     1     112.146 125.770 137.304  0.00  0.00    +0.000 A 
ATOM     17  C   UNL     1     113.521 125.972 136.971  0.00  0.00    +0.000 A 
ATOM     18  C   UNL     1     112.229 124.962 137.158  0.00  0.00    +0.000 A 
ATOM     19  C   UNL     1     113.604 125.165 136.826  0.00  0.00    +0.000 A 
ATOM     20  C   UNL     1     112.959 124.660 136.919  0.00  0.00    +0.000 A 
ENDBRANCH   8  15
BRANCH   4  21
ATOM     21  O   UNL     1     113.421 126.935 138.586  0.00  0.00    +0.000 OA
BRANCH  21  30
ATOM     22  O   UNL     1     112.349 126.887 139.530  0.00  0.00    +0.000 OA
ATOM     23  O   UNL     1     113.986 126.749 141.381  0.00  0.00    +0.000 OA
ATOM     24  O   UNL     1     112.369 126.747 141.708  0.00  0.00    +0.000 OA
ATOM     25  O   UNL     1     114.512 126.843 139.820  0.00  0.00    +0.000 OA
ATOM     26  C   UNL     1     113.441 126.795 140.764  0.00  0.00    +0.000 C 
ATOM     27  C   UNL     1     112.633 126.794 140.928  0.00  0.00    +0.000 C 
ATOM     28  C   UNL     1     113.704 126.842 139.984  0.00  0.00    +0.000 C 
ATOM     29  C   UNL     1     112.087 126.840 140.311  0.00  0.00    +0.000 C 
ATOM     30  C   UNL     1     113.159 126.888 139.367  0.00  0.00    +0.000 C 
ATOM     31  C   UNL     1     111.278 126.839 140.474  0.00  0.00    +0.000 C 
ENDBRANCH  21  30
ENDBRANCH   4  21
BRANCH   5  32
ATOM     32  O   UNL     1     111.319 130.172 135.991  0.00  0.00    +0.000 OA
BRANCH  32  40
ATOM     33  O   UNL     1     110.115 130.382 136.733  0.00  0.00    +0.000 OA
ATOM     34  O   UNL     1     108.789 130.086 134.664  0.00  0.00    +0.000 OA
ATOM     35  O   UNL     1     110.434 129.975 134.613  0.00  0.00    +0.000 OA
ATOM     36  O   UNL     1     108.027 130.395 136.095  0.00  0.00    +0.000 OA
ATOM     37  C   UNL     1     109.231 130.185 135.354  0.00  0.00    +0.000 C 
ATOM     38  C   UNL     1     110.054 130.129 135.327  0.00  0.00    +0.000 C 
ATOM     39  C   UNL     1     108.850 130.339 136.070  0.00  0.00    +0.000 C 
ATOM     40  C   UNL     1     110.496 130.228 136.017  0.00  0.00    +0.000 C 
ATOM     41  C   UNL     1     109.293 130.437 136.759  0.00  0.00    +0.000 C 
BRANCH  41  44
ATOM     42  O   UNL     1     108.815 131.369 137.731  0.00  0.00    +0.000 OA
ATOM     43  O   UNL     1     108.627 129.967 137.932  0.00  0.00    +0.000 OA
ATOM     44  C   UNL     1     108.912 130.591 137.474  0.00  0.00    +0.000 C 
ENDBRANCH  41  44
ENDBRANCH  32  40
ENDBRANCH   5  32
TORSDOF 6
ENDMDL
