MODEL 1
REMARK VINA RESULT:      -9.9      0.000      0.000
REMARK  Name = 134780089
REMARK  3 active torsions:
REMARK  status: ('A' for Active; 'I' for Inactive)
REMARK    1  A    between atoms: C_12  and  C_17
REMARK    2  A    between atoms: C_16  and  C_23
REMARK    3  A    between atoms: C_21  and  C_27
REMARK                            x       y       z     vdW  Elec       q    Type
REMARK                         _______ _______ _______ _____ _____    ______ ____
ROOT
ATOM      1  O   UNL     1     105.218 125.071 147.643  0.00  0.00    +0.000 OA
ATOM      2  O   UNL     1     104.377 124.375 149.598  0.00  0.00    +0.000 OA
ATOM      3  O   UNL     1     107.956 125.426 146.821  0.00  0.00    +0.000 OA
ATOM      4  O   UNL     1     107.392 124.500 149.466  0.00  0.00    +0.000 OA
ATOM      5  C   UNL     1     106.602 125.246 147.241  0.00  0.00    +0.000 A 
ATOM      6  C   UNL     1     106.058 125.031 147.822  0.00  0.00    +0.000 A 
ATOM      7  C   UNL     1     106.321 124.783 148.563  0.00  0.00    +0.000 A 
ATOM      8  C   UNL     1     104.919 124.590 149.015  0.00  0.00    +0.000 C 
ATOM      9  C   UNL     1     104.645 124.849 148.243  0.00  0.00    +0.000 C 
ATOM     10  C   UNL     1     105.762 124.557 149.176  0.00  0.00    +0.000 C 
ATOM     11  C   UNL     1     107.411 125.212 147.402  0.00  0.00    +0.000 A 
ATOM     12  C   UNL     1     107.129 124.749 148.724  0.00  0.00    +0.000 A 
ATOM     13  C   UNL     1     107.674 124.963 148.143  0.00  0.00    +0.000 A 
ENDROOT
BRANCH   5  18
ATOM     14  O   UNL     1     106.154 124.938 145.920  0.00  0.00    +0.000 OA
ATOM     15  O   UNL     1     106.447 126.856 146.919  0.00  0.00    +0.000 OA
ATOM     16  O   UNL     1     105.921 127.353 145.436  0.00  0.00    +0.000 OA
ATOM     17  O   UNL     1     105.550 126.240 144.275  0.00  0.00    +0.000 OA
ATOM     18  C   UNL     1     106.340 125.494 146.500  0.00  0.00    +0.000 C 
ATOM     19  C   UNL     1     106.262 126.299 146.338  0.00  0.00    +0.000 C 
ATOM     20  C   UNL     1     105.998 126.548 145.597  0.00  0.00    +0.000 C 
ATOM     21  C   UNL     1     105.813 125.991 145.018  0.00  0.00    +0.000 C 
ATOM     22  C   UNL     1     105.891 125.186 145.179  0.00  0.00    +0.000 C 
BRANCH  22  24
ATOM     23  O   UNL     1     106.012 123.864 144.650  0.00  0.00    +0.000 OA
ATOM     24  C   UNL     1     105.706 124.629 144.599  0.00  0.00    +0.000 C 
ENDBRANCH  22  24
ENDBRANCH   5  18
BRANCH   9  27
ATOM     25  O   UNL     1     102.279 123.642 147.188  0.00  0.00    +0.000 OA
ATOM     26  O   UNL     1     101.413 124.988 147.589  0.00  0.00    +0.000 OA
ATOM     27  C   UNL     1     103.837 124.884 148.080  0.00  0.00    +0.000 A 
ATOM     28  C   UNL     1     103.462 124.246 147.716  0.00  0.00    +0.000 A 
ATOM     29  C   UNL     1     103.404 125.556 148.280  0.00  0.00    +0.000 A 
ATOM     30  C   UNL     1     102.654 124.280 147.552  0.00  0.00    +0.000 A 
ATOM     31  C   UNL     1     102.596 125.591 148.117  0.00  0.00    +0.000 A 
ATOM     32  C   UNL     1     102.221 124.953 147.753  0.00  0.00    +0.000 A 
ENDBRANCH   9  27
TORSDOF 3
ENDMDL
MODEL 2
REMARK VINA RESULT:      -9.7     11.099     13.649
REMARK  Name = 134780089
REMARK  3 active torsions:
REMARK  status: ('A' for Active; 'I' for Inactive)
REMARK    1  A    between atoms: C_12  and  C_17
REMARK    2  A    between atoms: C_16  and  C_23
REMARK    3  A    between atoms: C_21  and  C_27
REMARK                            x       y       z     vdW  Elec       q    Type
REMARK                         _______ _______ _______ _____ _____    ______ ____
ROOT
ATOM      1  O   UNL     1     112.155 127.097 136.194  0.00  0.00    +0.000 OA
ATOM      2  O   UNL     1     111.139 128.426 134.705  0.00  0.00    +0.000 OA
ATOM      3  O   UNL     1     111.693 124.325 136.828  0.00  0.00    +0.000 OA
ATOM      4  O   UNL     1     110.105 125.589 134.816  0.00  0.00    +0.000 OA
ATOM      5  C   UNL     1     111.912 125.699 136.504  0.00  0.00    +0.000 A 
ATOM      6  C   UNL     1     111.720 126.368 136.061  0.00  0.00    +0.000 A 
ATOM      7  C   UNL     1     111.118 126.331 135.498  0.00  0.00    +0.000 A 
ATOM      8  C   UNL     1     111.333 127.759 135.150  0.00  0.00    +0.000 C 
ATOM      9  C   UNL     1     111.960 127.797 135.736  0.00  0.00    +0.000 C 
ATOM     10  C   UNL     1     110.909 127.021 135.030  0.00  0.00    +0.000 C 
ATOM     11  C   UNL     1     111.501 124.994 136.384  0.00  0.00    +0.000 A 
ATOM     12  C   UNL     1     110.708 125.626 135.379  0.00  0.00    +0.000 A 
ATOM     13  C   UNL     1     110.899 124.958 135.822  0.00  0.00    +0.000 A 
ENDROOT
BRANCH   5  18
ATOM     14  O   UNL     1     112.359 126.038 137.818  0.00  0.00    +0.000 OA
ATOM     15  O   UNL     1     113.427 125.168 136.125  0.00  0.00    +0.000 OA
ATOM     16  O   UNL     1     114.632 125.241 137.250  0.00  0.00    +0.000 OA
ATOM     17  O   UNL     1     114.322 125.845 138.755  0.00  0.00    +0.000 OA
ATOM     18  C   UNL     1     112.514 125.736 137.066  0.00  0.00    +0.000 C 
ATOM     19  C   UNL     1     113.272 125.470 136.878  0.00  0.00    +0.000 C 
ATOM     20  C   UNL     1     113.874 125.507 137.440  0.00  0.00    +0.000 C 
ATOM     21  C   UNL     1     113.719 125.809 138.191  0.00  0.00    +0.000 C 
ATOM     22  C   UNL     1     112.962 126.074 138.380  0.00  0.00    +0.000 C 
BRANCH  22  24
ATOM     23  O   UNL     1     112.132 126.132 139.543  0.00  0.00    +0.000 OA
ATOM     24  C   UNL     1     112.805 126.376 139.132  0.00  0.00    +0.000 C 
ENDBRANCH  22  24
ENDBRANCH   5  18
BRANCH   9  27
ATOM     25  O   UNL     1     114.207 129.476 135.185  0.00  0.00    +0.000 OA
ATOM     26  O   UNL     1     113.610 130.614 136.221  0.00  0.00    +0.000 OA
ATOM     27  C   UNL     1     112.373 128.501 135.857  0.00  0.00    +0.000 A 
ATOM     28  C   UNL     1     113.083 128.636 135.461  0.00  0.00    +0.000 A 
ATOM     29  C   UNL     1     112.075 129.070 136.375  0.00  0.00    +0.000 A 
ATOM     30  C   UNL     1     113.496 129.341 135.582  0.00  0.00    +0.000 A 
ATOM     31  C   UNL     1     112.487 129.774 136.496  0.00  0.00    +0.000 A 
ATOM     32  C   UNL     1     113.198 129.909 136.100  0.00  0.00    +0.000 A 
ENDBRANCH   9  27
TORSDOF 3
ENDMDL
MODEL 3
REMARK VINA RESULT:      -9.7     12.239     13.655
REMARK  Name = 134780089
REMARK  3 active torsions:
REMARK  status: ('A' for Active; 'I' for Inactive)
REMARK    1  A    between atoms: C_12  and  C_17
REMARK    2  A    between atoms: C_16  and  C_23
REMARK    3  A    between atoms: C_21  and  C_27
REMARK                            x       y       z     vdW  Elec       q    Type
REMARK                         _______ _______ _______ _____ _____    ______ ____
ROOT
ATOM      1  O   UNL     1     112.019 126.675 136.089  0.00  0.00    +0.000 OA
ATOM      2  O   UNL     1     111.897 124.455 136.359  0.00  0.00    +0.000 OA
ATOM      3  O   UNL     1     110.309 128.462 134.612  0.00  0.00    +0.000 OA
ATOM      4  O   UNL     1     109.720 125.665 134.650  0.00  0.00    +0.000 OA
ATOM      5  C   UNL     1     111.149 127.565 135.341  0.00  0.00    +0.000 A 
ATOM      6  C   UNL     1     111.331 126.800 135.589  0.00  0.00    +0.000 A 
ATOM      7  C   UNL     1     110.855 126.167 135.359  0.00  0.00    +0.000 A 
ATOM      8  C   UNL     1     111.718 125.221 136.112  0.00  0.00    +0.000 C 
ATOM      9  C   UNL     1     112.214 125.881 136.351  0.00  0.00    +0.000 C 
ATOM     10  C   UNL     1     111.034 125.365 135.613  0.00  0.00    +0.000 C 
ATOM     11  C   UNL     1     110.491 127.697 134.861  0.00  0.00    +0.000 A 
ATOM     12  C   UNL     1     110.197 126.299 134.880  0.00  0.00    +0.000 A 
ATOM     13  C   UNL     1     110.015 127.063 134.631  0.00  0.00    +0.000 A 
ENDROOT
BRANCH   5  18
ATOM     14  O   UNL     1     112.318 128.366 135.155  0.00  0.00    +0.000 OA
ATOM     15  O   UNL     1     110.716 128.495 136.632  0.00  0.00    +0.000 OA
ATOM     16  O   UNL     1     111.669 129.761 137.093  0.00  0.00    +0.000 OA
ATOM     17  O   UNL     1     113.055 130.097 136.261  0.00  0.00    +0.000 OA
ATOM     18  C   UNL     1     111.625 128.197 135.570  0.00  0.00    +0.000 C 
ATOM     19  C   UNL     1     111.410 128.663 136.216  0.00  0.00    +0.000 C 
ATOM     20  C   UNL     1     111.886 129.296 136.446  0.00  0.00    +0.000 C 
ATOM     21  C   UNL     1     112.578 129.464 136.031  0.00  0.00    +0.000 C 
ATOM     22  C   UNL     1     112.794 128.999 135.385  0.00  0.00    +0.000 C 
BRANCH  22  24
ATOM     23  O   UNL     1     114.120 128.636 134.992  0.00  0.00    +0.000 OA
ATOM     24  C   UNL     1     113.486 129.166 134.969  0.00  0.00    +0.000 C 
ENDBRANCH  22  24
ENDBRANCH   5  18
BRANCH   9  27
ATOM     25  O   UNL     1     113.445 125.922 138.931  0.00  0.00    +0.000 OA
ATOM     26  O   UNL     1     114.850 125.364 138.269  0.00  0.00    +0.000 OA
ATOM     27  C   UNL     1     112.873 125.751 136.831  0.00  0.00    +0.000 A 
ATOM     28  C   UNL     1     112.829 125.901 137.641  0.00  0.00    +0.000 A 
ATOM     29  C   UNL     1     113.575 125.473 136.501  0.00  0.00    +0.000 A 
ATOM     30  C   UNL     1     113.488 125.772 138.121  0.00  0.00    +0.000 A 
ATOM     31  C   UNL     1     114.234 125.344 136.980  0.00  0.00    +0.000 A 
ATOM     32  C   UNL     1     114.191 125.493 137.790  0.00  0.00    +0.000 A 
ENDBRANCH   9  27
TORSDOF 3
ENDMDL
MODEL 4
REMARK VINA RESULT:      -9.4     10.633     13.136
REMARK  Name = 134780089
REMARK  3 active torsions:
REMARK  status: ('A' for Active; 'I' for Inactive)
REMARK    1  A    between atoms: C_12  and  C_17
REMARK    2  A    between atoms: C_16  and  C_23
REMARK    3  A    between atoms: C_21  and  C_27
REMARK                            x       y       z     vdW  Elec       q    Type
REMARK                         _______ _______ _______ _____ _____    ______ ____
ROOT
ATOM      1  O   UNL     1     112.513 126.596 136.660  0.00  0.00    +0.000 OA
ATOM      2  O   UNL     1     114.630 127.189 136.229  0.00  0.00    +0.000 OA
ATOM      3  O   UNL     1     111.380 123.996 137.168  0.00  0.00    +0.000 OA
ATOM      4  O   UNL     1     114.184 124.233 136.664  0.00  0.00    +0.000 OA
ATOM      5  C   UNL     1     111.955 125.280 136.914  0.00  0.00    +0.000 A 
ATOM      6  C   UNL     1     112.614 125.746 136.746  0.00  0.00    +0.000 A 
ATOM      7  C   UNL     1     113.357 125.397 136.663  0.00  0.00    +0.000 A 
ATOM      8  C   UNL     1     113.969 126.724 136.398  0.00  0.00    +0.000 C 
ATOM      9  C   UNL     1     113.195 127.088 136.484  0.00  0.00    +0.000 C 
ATOM     10  C   UNL     1     114.050 125.874 136.487  0.00  0.00    +0.000 C 
ATOM     11  C   UNL     1     112.040 124.464 136.999  0.00  0.00    +0.000 A 
ATOM     12  C   UNL     1     113.441 124.582 136.748  0.00  0.00    +0.000 A 
ATOM     13  C   UNL     1     112.783 124.115 136.916  0.00  0.00    +0.000 A 
ENDROOT
BRANCH   5  18
ATOM     14  O   UNL     1     110.763 125.807 136.329  0.00  0.00    +0.000 OA
ATOM     15  O   UNL     1     111.368 125.619 138.418  0.00  0.00    +0.000 OA
ATOM     16  O   UNL     1     109.882 126.317 138.585  0.00  0.00    +0.000 OA
ATOM     17  O   UNL     1     108.983 126.675 137.247  0.00  0.00    +0.000 OA
ATOM     18  C   UNL     1     111.213 125.628 136.997  0.00  0.00    +0.000 C 
ATOM     19  C   UNL     1     110.918 125.798 137.749  0.00  0.00    +0.000 C 
ATOM     20  C   UNL     1     110.175 126.147 137.832  0.00  0.00    +0.000 C 
ATOM     21  C   UNL     1     109.727 126.326 137.164  0.00  0.00    +0.000 C 
ATOM     22  C   UNL     1     110.020 126.156 136.413  0.00  0.00    +0.000 C 
BRANCH  22  24
ATOM     23  O   UNL     1     109.647 125.875 135.062  0.00  0.00    +0.000 OA
ATOM     24  C   UNL     1     109.572 126.335 135.744  0.00  0.00    +0.000 C 
ENDBRANCH  22  24
ENDBRANCH   5  18
BRANCH   9  27
ATOM     25  O   UNL     1     112.630 129.360 134.845  0.00  0.00    +0.000 OA
ATOM     26  O   UNL     1     112.847 130.352 136.146  0.00  0.00    +0.000 OA
ATOM     27  C   UNL     1     113.108 127.904 136.400  0.00  0.00    +0.000 A 
ATOM     28  C   UNL     1     112.913 128.224 135.665  0.00  0.00    +0.000 A 
ATOM     29  C   UNL     1     113.216 128.400 137.049  0.00  0.00    +0.000 A 
ATOM     30  C   UNL     1     112.826 129.040 135.580  0.00  0.00    +0.000 A 
ATOM     31  C   UNL     1     113.129 129.216 136.965  0.00  0.00    +0.000 A 
ATOM     32  C   UNL     1     112.934 129.536 136.230  0.00  0.00    +0.000 A 
ENDBRANCH   9  27
TORSDOF 3
ENDMDL
MODEL 5
REMARK VINA RESULT:      -9.4     11.872     12.924
REMARK  Name = 134780089
REMARK  3 active torsions:
REMARK  status: ('A' for Active; 'I' for Inactive)
REMARK    1  A    between atoms: C_12  and  C_17
REMARK    2  A    between atoms: C_16  and  C_23
REMARK    3  A    between atoms: C_21  and  C_27
REMARK                            x       y       z     vdW  Elec       q    Type
REMARK                         _______ _______ _______ _____ _____    ______ ____
ROOT
ATOM      1  O   UNL     1     111.352 126.574 136.211  0.00  0.00    +0.000 OA
ATOM      2  O   UNL     1     109.714 125.669 134.980  0.00  0.00    +0.000 OA
ATOM      3  O   UNL     1     113.559 125.320 137.574  0.00  0.00    +0.000 OA
ATOM      4  O   UNL     1     111.709 123.703 136.112  0.00  0.00    +0.000 OA
ATOM      5  C   UNL     1     112.460 125.929 136.894  0.00  0.00    +0.000 A 
ATOM      6  C   UNL     1     111.786 125.863 136.423  0.00  0.00    +0.000 A 
ATOM      7  C   UNL     1     111.536 125.121 136.163  0.00  0.00    +0.000 A 
ATOM      8  C   UNL     1     110.388 125.739 135.451  0.00  0.00    +0.000 C 
ATOM      9  C   UNL     1     110.649 126.512 135.722  0.00  0.00    +0.000 C 
ATOM     10  C   UNL     1     110.834 125.039 135.673  0.00  0.00    +0.000 C 
ATOM     11  C   UNL     1     112.884 125.253 137.103  0.00  0.00    +0.000 A 
ATOM     12  C   UNL     1     111.960 124.446 136.373  0.00  0.00    +0.000 A 
ATOM     13  C   UNL     1     112.634 124.512 136.843  0.00  0.00    +0.000 A 
ENDROOT
BRANCH   5  18
ATOM     14  O   UNL     1     113.138 127.162 136.649  0.00  0.00    +0.000 OA
ATOM     15  O   UNL     1     112.105 126.428 138.425  0.00  0.00    +0.000 OA
ATOM     16  O   UNL     1     112.605 127.912 138.946  0.00  0.00    +0.000 OA
ATOM     17  O   UNL     1     113.462 128.896 137.935  0.00  0.00    +0.000 OA
ATOM     18  C   UNL     1     112.710 126.670 137.154  0.00  0.00    +0.000 C 
ATOM     19  C   UNL     1     112.533 126.920 137.919  0.00  0.00    +0.000 C 
ATOM     20  C   UNL     1     112.783 127.662 138.180  0.00  0.00    +0.000 C 
ATOM     21  C   UNL     1     113.211 128.153 137.675  0.00  0.00    +0.000 C 
ATOM     22  C   UNL     1     113.389 127.904 136.909  0.00  0.00    +0.000 C 
BRANCH  22  24
ATOM     23  O   UNL     1     114.190 128.078 135.738  0.00  0.00    +0.000 OA
ATOM     24  C   UNL     1     113.817 128.395 136.403  0.00  0.00    +0.000 C 
ENDBRANCH  22  24
ENDBRANCH   5  18
BRANCH   9  27
ATOM     25  O   UNL     1     108.585 128.410 136.277  0.00  0.00    +0.000 OA
ATOM     26  O   UNL     1     108.959 129.221 134.889  0.00  0.00    +0.000 OA
ATOM     27  C   UNL     1     110.227 127.189 135.514  0.00  0.00    +0.000 A 
ATOM     28  C   UNL     1     109.618 127.461 135.999  0.00  0.00    +0.000 A 
ATOM     29  C   UNL     1     110.413 127.595 134.820  0.00  0.00    +0.000 A 
ATOM     30  C   UNL     1     109.194 128.138 135.791  0.00  0.00    +0.000 A 
ATOM     31  C   UNL     1     109.990 128.272 134.612  0.00  0.00    +0.000 A 
ATOM     32  C   UNL     1     109.381 128.544 135.098  0.00  0.00    +0.000 A 
ENDBRANCH   9  27
TORSDOF 3
ENDMDL
MODEL 6
REMARK VINA RESULT:      -9.4     11.268     13.008
REMARK  Name = 134780089
REMARK  3 active torsions:
REMARK  status: ('A' for Active; 'I' for Inactive)
REMARK    1  A    between atoms: C_12  and  C_17
REMARK    2  A    between atoms: C_16  and  C_23
REMARK    3  A    between atoms: C_21  and  C_27
REMARK                            x       y       z     vdW  Elec       q    Type
REMARK                         _______ _______ _______ _____ _____    ______ ____
ROOT
ATOM      1  O   UNL     1     111.752 127.613 136.246  0.00  0.00    +0.000 OA
ATOM      2  O   UNL     1     111.471 129.527 135.118  0.00  0.00    +0.000 OA
ATOM      3  O   UNL     1     114.170 126.221 136.968  0.00  0.00    +0.000 OA
ATOM      4  O   UNL     1     114.342 128.670 135.502  0.00  0.00    +0.000 OA
ATOM      5  C   UNL     1     112.978 126.921 136.604  0.00  0.00    +0.000 A 
ATOM      6  C   UNL     1     112.611 127.563 136.238  0.00  0.00    +0.000 A 
ATOM      7  C   UNL     1     113.065 128.145 135.871  0.00  0.00    +0.000 A 
ATOM      8  C   UNL     1     111.836 128.884 135.485  0.00  0.00    +0.000 C 
ATOM      9  C   UNL     1     111.363 128.278 135.867  0.00  0.00    +0.000 C 
ATOM     10  C   UNL     1     112.693 128.818 135.487  0.00  0.00    +0.000 C 
ATOM     11  C   UNL     1     113.801 126.863 136.602  0.00  0.00    +0.000 A 
ATOM     12  C   UNL     1     113.887 128.086 135.870  0.00  0.00    +0.000 A 
ATOM     13  C   UNL     1     114.256 127.446 136.235  0.00  0.00    +0.000 A 
ENDROOT
BRANCH   5  18
ATOM     14  O   UNL     1     112.203 125.724 136.524  0.00  0.00    +0.000 OA
ATOM     15  O   UNL     1     112.712 126.987 138.230  0.00  0.00    +0.000 OA
ATOM     16  O   UNL     1     111.803 125.822 138.964  0.00  0.00    +0.000 OA
ATOM     17  O   UNL     1     111.160 124.591 138.071  0.00  0.00    +0.000 OA
ATOM     18  C   UNL     1     112.524 126.339 136.970  0.00  0.00    +0.000 C 
ATOM     19  C   UNL     1     112.391 126.371 137.784  0.00  0.00    +0.000 C 
ATOM     20  C   UNL     1     111.936 125.789 138.150  0.00  0.00    +0.000 C 
ATOM     21  C   UNL     1     111.615 125.174 137.704  0.00  0.00    +0.000 C 
ATOM     22  C   UNL     1     111.749 125.142 136.891  0.00  0.00    +0.000 C 
BRANCH  22  24
ATOM     23  O   UNL     1     111.071 124.688 135.717  0.00  0.00    +0.000 OA
ATOM     24  C   UNL     1     111.428 124.527 136.444  0.00  0.00    +0.000 C 
ENDBRANCH  22  24
ENDBRANCH   5  18
BRANCH   9  27
ATOM     25  O   UNL     1     108.944 129.121 137.134  0.00  0.00    +0.000 OA
ATOM     26  O   UNL     1     108.070 128.503 135.878  0.00  0.00    +0.000 OA
ATOM     27  C   UNL     1     110.540 128.334 135.869  0.00  0.00    +0.000 A 
ATOM     28  C   UNL     1     110.154 128.699 136.500  0.00  0.00    +0.000 A 
ATOM     29  C   UNL     1     110.103 128.025 135.242  0.00  0.00    +0.000 A 
ATOM     30  C   UNL     1     109.330 128.756 136.504  0.00  0.00    +0.000 A 
ATOM     31  C   UNL     1     109.280 128.081 135.245  0.00  0.00    +0.000 A 
ATOM     32  C   UNL     1     108.894 128.447 135.875  0.00  0.00    +0.000 A 
ENDBRANCH   9  27
TORSDOF 3
ENDMDL
MODEL 7
REMARK VINA RESULT:      -9.3     11.867     13.221
REMARK  Name = 134780089
REMARK  3 active torsions:
REMARK  status: ('A' for Active; 'I' for Inactive)
REMARK    1  A    between atoms: C_12  and  C_17
REMARK    2  A    between atoms: C_16  and  C_23
REMARK    3  A    between atoms: C_21  and  C_27
REMARK                            x       y       z     vdW  Elec       q    Type
REMARK                         _______ _______ _______ _____ _____    ______ ____
ROOT
ATOM      1  O   UNL     1     110.354 127.968 135.951  0.00  0.00    +0.000 OA
ATOM      2  O   UNL     1     108.566 126.626 135.796  0.00  0.00    +0.000 OA
ATOM      3  O   UNL     1     110.520 130.844 135.971  0.00  0.00    +0.000 OA
ATOM      4  O   UNL     1     107.962 129.586 135.751  0.00  0.00    +0.000 OA
ATOM      5  C   UNL     1     110.424 129.418 135.960  0.00  0.00    +0.000 A 
ATOM      6  C   UNL     1     109.965 128.734 135.919  0.00  0.00    +0.000 A 
ATOM      7  C   UNL     1     109.145 128.790 135.850  0.00  0.00    +0.000 A 
ATOM      8  C   UNL     1     109.028 127.309 135.837  0.00  0.00    +0.000 C 
ATOM      9  C   UNL     1     109.882 127.251 135.909  0.00  0.00    +0.000 C 
ATOM     10  C   UNL     1     108.657 128.083 135.807  0.00  0.00    +0.000 C 
ATOM     11  C   UNL     1     110.061 130.159 135.930  0.00  0.00    +0.000 A 
ATOM     12  C   UNL     1     108.783 129.530 135.821  0.00  0.00    +0.000 A 
ATOM     13  C   UNL     1     109.241 130.215 135.861  0.00  0.00    +0.000 A 
ENDROOT
BRANCH   5  18
ATOM     14  O   UNL     1     111.589 129.260 136.771  0.00  0.00    +0.000 OA
ATOM     15  O   UNL     1     111.373 129.511 134.614  0.00  0.00    +0.000 OA
ATOM     16  O   UNL     1     113.013 129.399 134.752  0.00  0.00    +0.000 OA
ATOM     17  O   UNL     1     113.704 129.195 136.237  0.00  0.00    +0.000 OA
ATOM     18  C   UNL     1     111.243 129.362 136.029  0.00  0.00    +0.000 C 
ATOM     19  C   UNL     1     111.718 129.409 135.357  0.00  0.00    +0.000 C 
ATOM     20  C   UNL     1     112.539 129.353 135.426  0.00  0.00    +0.000 C 
ATOM     21  C   UNL     1     112.883 129.251 136.168  0.00  0.00    +0.000 C 
ATOM     22  C   UNL     1     112.409 129.204 136.840  0.00  0.00    +0.000 C 
BRANCH  22  24
ATOM     23  O   UNL     1     112.334 129.308 138.264  0.00  0.00    +0.000 OA
ATOM     24  C   UNL     1     112.753 129.102 137.583  0.00  0.00    +0.000 C 
ENDBRANCH  22  24
ENDBRANCH   5  18
BRANCH   9  27
ATOM     25  O   UNL     1     110.995 125.099 137.425  0.00  0.00    +0.000 OA
ATOM     26  O   UNL     1     111.340 124.293 136.027  0.00  0.00    +0.000 OA
ATOM     27  C   UNL     1     110.246 126.512 135.938  0.00  0.00    +0.000 A 
ATOM     28  C   UNL     1     110.438 126.175 136.667  0.00  0.00    +0.000 A 
ATOM     29  C   UNL     1     110.419 126.108 135.240  0.00  0.00    +0.000 A 
ATOM     30  C   UNL     1     110.803 125.435 136.697  0.00  0.00    +0.000 A 
ATOM     31  C   UNL     1     110.784 125.369 135.270  0.00  0.00    +0.000 A 
ATOM     32  C   UNL     1     110.976 125.032 135.998  0.00  0.00    +0.000 A 
ENDBRANCH   9  27
TORSDOF 3
ENDMDL
MODEL 8
REMARK VINA RESULT:      -9.3     10.465     12.412
REMARK  Name = 134780089
REMARK  3 active torsions:
REMARK  status: ('A' for Active; 'I' for Inactive)
REMARK    1  A    between atoms: C_12  and  C_17
REMARK    2  A    between atoms: C_16  and  C_23
REMARK    3  A    between atoms: C_21  and  C_27
REMARK                            x       y       z     vdW  Elec       q    Type
REMARK                         _______ _______ _______ _____ _____    ______ ____
ROOT
ATOM      1  O   UNL     1     111.607 126.312 136.756  0.00  0.00    +0.000 OA
ATOM      2  O   UNL     1     110.493 125.017 135.307  0.00  0.00    +0.000 OA
ATOM      3  O   UNL     1     114.075 125.827 138.162  0.00  0.00    +0.000 OA
ATOM      4  O   UNL     1     113.049 123.829 136.393  0.00  0.00    +0.000 OA
ATOM      5  C   UNL     1     112.852 126.055 137.459  0.00  0.00    +0.000 A 
ATOM      6  C   UNL     1     112.274 125.798 136.930  0.00  0.00    +0.000 A 
ATOM      7  C   UNL     1     112.339 125.056 136.575  0.00  0.00    +0.000 A 
ATOM      8  C   UNL     1     111.070 125.277 135.837  0.00  0.00    +0.000 C 
ATOM      9  C   UNL     1     111.001 126.050 136.206  0.00  0.00    +0.000 C 
ATOM     10  C   UNL     1     111.743 124.777 136.022  0.00  0.00    +0.000 C 
ATOM     11  C   UNL     1     113.496 125.570 137.632  0.00  0.00    +0.000 A 
ATOM     12  C   UNL     1     112.983 124.571 136.749  0.00  0.00    +0.000 A 
ATOM     13  C   UNL     1     113.562 124.828 137.277  0.00  0.00    +0.000 A 
ENDROOT
BRANCH   5  18
ATOM     14  O   UNL     1     112.331 126.889 138.495  0.00  0.00    +0.000 OA
ATOM     15  O   UNL     1     113.632 127.353 136.805  0.00  0.00    +0.000 OA
ATOM     16  O   UNL     1     113.500 128.837 137.515  0.00  0.00    +0.000 OA
ATOM     17  O   UNL     1     112.589 129.022 138.878  0.00  0.00    +0.000 OA
ATOM     18  C   UNL     1     112.786 126.796 137.813  0.00  0.00    +0.000 C 
ATOM     19  C   UNL     1     113.176 127.446 137.487  0.00  0.00    +0.000 C 
ATOM     20  C   UNL     1     113.110 128.188 137.842  0.00  0.00    +0.000 C 
ATOM     21  C   UNL     1     112.655 128.280 138.523  0.00  0.00    +0.000 C 
ATOM     22  C   UNL     1     112.265 127.631 138.849  0.00  0.00    +0.000 C 
BRANCH  22  24
ATOM     23  O   UNL     1     111.585 127.059 139.970  0.00  0.00    +0.000 OA
ATOM     24  C   UNL     1     111.809 127.722 139.531  0.00  0.00    +0.000 C 
ENDBRANCH  22  24
ENDBRANCH   5  18
BRANCH   9  27
ATOM     25  O   UNL     1     108.369 126.983 136.818  0.00  0.00    +0.000 OA
ATOM     26  O   UNL     1     108.428 127.998 135.518  0.00  0.00    +0.000 OA
ATOM     27  C   UNL     1     110.358 126.537 136.034  0.00  0.00    +0.000 A 
ATOM     28  C   UNL     1     109.686 126.516 136.512  0.00  0.00    +0.000 A 
ATOM     29  C   UNL     1     110.386 127.044 135.385  0.00  0.00    +0.000 A 
ATOM     30  C   UNL     1     109.042 127.003 136.340  0.00  0.00    +0.000 A 
ATOM     31  C   UNL     1     109.743 127.531 135.213  0.00  0.00    +0.000 A 
ATOM     32  C   UNL     1     109.071 127.511 135.690  0.00  0.00    +0.000 A 
ENDBRANCH   9  27
TORSDOF 3
ENDMDL
