MODEL 1
REMARK VINA RESULT:      -9.7      0.000      0.000
REMARK  Name = 44259537
REMARK  5 active torsions:
REMARK  status: ('A' for Active; 'I' for Inactive)
REMARK    1  A    between atoms: O_2  and  C_18
REMARK    2  A    between atoms: O_2  and  C_20
REMARK    3  A    between atoms: O_8  and  C_25
REMARK    4  A    between atoms: C_17  and  C_19
REMARK    5  A    between atoms: C_27  and  C_29
REMARK                            x       y       z     vdW  Elec       q    Type
REMARK                         _______ _______ _______ _____ _____    ______ ____
ROOT
ATOM      1  O   UNL     1     104.919 124.463 139.568  0.00  0.00    +0.000 OA
ATOM      2  O   UNL     1     103.707 122.739 140.136  0.00  0.00    +0.000 OA
ATOM      3  O   UNL     1     104.591 122.966 141.511  0.00  0.00    +0.000 OA
ATOM      4  C   UNL     1     106.396 125.340 140.997  0.00  0.00    +0.000 A 
ATOM      5  C   UNL     1     105.933 125.218 140.284  0.00  0.00    +0.000 A 
ATOM      6  C   UNL     1     106.282 124.821 141.671  0.00  0.00    +0.000 A 
ATOM      7  C   UNL     1     105.361 124.576 140.255  0.00  0.00    +0.000 A 
ATOM      8  C   UNL     1     105.252 124.077 140.903  0.00  0.00    +0.000 A 
ATOM      9  C   UNL     1     105.706 124.184 141.624  0.00  0.00    +0.000 A 
ATOM     10  C   UNL     1     104.700 123.465 140.863  0.00  0.00    +0.000 A 
ATOM     11  C   UNL     1     104.368 123.851 139.528  0.00  0.00    +0.000 A 
ATOM     12  C   UNL     1     104.258 123.351 140.176  0.00  0.00    +0.000 A 
ENDROOT
BRANCH  11  16
ATOM     13  O   UNL     1     104.193 122.975 136.813  0.00  0.00    +0.000 OA
ATOM     14  O   UNL     1     101.889 124.049 138.120  0.00  0.00    +0.000 OA
ATOM     15  O   UNL     1     102.599 123.398 136.780  0.00  0.00    +0.000 OA
ATOM     16  C   UNL     1     103.926 123.738 138.841  0.00  0.00    +0.000 A 
ATOM     17  C   UNL     1     103.129 123.950 138.823  0.00  0.00    +0.000 A 
ATOM     18  C   UNL     1     104.281 123.413 138.171  0.00  0.00    +0.000 A 
ATOM     19  C   UNL     1     103.838 123.300 137.483  0.00  0.00    +0.000 A 
ATOM     20  C   UNL     1     102.686 123.836 138.136  0.00  0.00    +0.000 A 
ATOM     21  C   UNL     1     103.041 123.511 137.466  0.00  0.00    +0.000 A 
ENDBRANCH  11  16
BRANCH   9  22
ATOM     22  O   UNL     1     105.590 123.681 142.266  0.00  0.00    +0.000 OA
ATOM     23  C   UNL     1     105.456 123.994 143.018  0.00  0.00    +0.000 C 
ENDBRANCH   9  22
BRANCH   4  24
ATOM     24  O   UNL     1     106.947 125.953 141.034  0.00  0.00    +0.000 OA
BRANCH  24  33
ATOM     25  O   UNL     1     106.105 127.011 141.497  0.00  0.00    +0.000 OA
ATOM     26  O   UNL     1     107.850 127.692 143.115  0.00  0.00    +0.000 OA
ATOM     27  O   UNL     1     106.427 128.522 143.039  0.00  0.00    +0.000 OA
ATOM     28  O   UNL     1     108.110 126.408 142.112  0.00  0.00    +0.000 OA
ATOM     29  C   UNL     1     107.268 127.465 142.575  0.00  0.00    +0.000 C 
ATOM     30  C   UNL     1     106.557 127.880 142.538  0.00  0.00    +0.000 C 
ATOM     31  C   UNL     1     107.399 126.823 142.074  0.00  0.00    +0.000 C 
ATOM     32  C   UNL     1     105.975 127.653 141.999  0.00  0.00    +0.000 C 
ATOM     33  C   UNL     1     106.817 126.595 141.535  0.00  0.00    +0.000 C 
BRANCH  32  35
ATOM     34  O   UNL     1     104.984 128.342 141.233  0.00  0.00    +0.000 OA
ATOM     35  C   UNL     1     105.263 128.067 141.960  0.00  0.00    +0.000 C 
ENDBRANCH  32  35
ENDBRANCH  24  33
ENDBRANCH   4  24
TORSDOF 5
ENDMDL
MODEL 2
REMARK VINA RESULT:      -9.6      7.813      9.045
REMARK  Name = 44259537
REMARK  5 active torsions:
REMARK  status: ('A' for Active; 'I' for Inactive)
REMARK    1  A    between atoms: O_2  and  C_18
REMARK    2  A    between atoms: O_2  and  C_20
REMARK    3  A    between atoms: O_8  and  C_25
REMARK    4  A    between atoms: C_17  and  C_19
REMARK    5  A    between atoms: C_27  and  C_29
REMARK                            x       y       z     vdW  Elec       q    Type
REMARK                         _______ _______ _______ _____ _____    ______ ____
ROOT
ATOM      1  O   UNL     1     111.821 126.976 136.027  0.00  0.00    +0.000 OA
ATOM      2  O   UNL     1     109.828 126.088 135.929  0.00  0.00    +0.000 OA
ATOM      3  O   UNL     1     109.577 127.509 135.128  0.00  0.00    +0.000 OA
ATOM      4  C   UNL     1     112.226 128.974 135.112  0.00  0.00    +0.000 A 
ATOM      5  C   UNL     1     112.351 128.232 135.528  0.00  0.00    +0.000 A 
ATOM      6  C   UNL     1     111.447 129.159 134.800  0.00  0.00    +0.000 A 
ATOM      7  C   UNL     1     111.694 127.685 135.627  0.00  0.00    +0.000 A 
ATOM      8  C   UNL     1     110.947 127.864 135.327  0.00  0.00    +0.000 A 
ATOM      9  C   UNL     1     110.803 128.600 134.908  0.00  0.00    +0.000 A 
ATOM     10  C   UNL     1     110.324 127.331 135.428  0.00  0.00    +0.000 A 
ATOM     11  C   UNL     1     111.198 126.443 136.127  0.00  0.00    +0.000 A 
ATOM     12  C   UNL     1     110.450 126.621 135.828  0.00  0.00    +0.000 A 
ENDROOT
BRANCH  11  16
ATOM     13  O   UNL     1     111.202 124.937 138.557  0.00  0.00    +0.000 OA
ATOM     14  O   UNL     1     111.948 123.686 136.099  0.00  0.00    +0.000 OA
ATOM     15  O   UNL     1     111.701 123.602 137.728  0.00  0.00    +0.000 OA
ATOM     16  C   UNL     1     111.324 125.733 136.528  0.00  0.00    +0.000 A 
ATOM     17  C   UNL     1     111.573 125.064 136.114  0.00  0.00    +0.000 A 
ATOM     18  C   UNL     1     111.200 125.691 137.342  0.00  0.00    +0.000 A 
ATOM     19  C   UNL     1     111.326 124.980 137.743  0.00  0.00    +0.000 A 
ATOM     20  C   UNL     1     111.699 124.354 136.514  0.00  0.00    +0.000 A 
ATOM     21  C   UNL     1     111.575 124.312 137.328  0.00  0.00    +0.000 A 
ENDBRANCH  11  16
BRANCH   9  22
ATOM     22  O   UNL     1     110.052 128.770 134.612  0.00  0.00    +0.000 OA
ATOM     23  C   UNL     1     109.765 129.543 134.633  0.00  0.00    +0.000 C 
ENDBRANCH   9  22
BRANCH   4  24
ATOM     24  O   UNL     1     112.850 129.504 135.013  0.00  0.00    +0.000 OA
BRANCH  24  33
ATOM     25  O   UNL     1     112.639 130.258 136.208  0.00  0.00    +0.000 OA
ATOM     26  O   UNL     1     115.087 130.439 136.525  0.00  0.00    +0.000 OA
ATOM     27  O   UNL     1     114.061 131.132 137.614  0.00  0.00    +0.000 OA
ATOM     28  O   UNL     1     114.482 129.624 135.224  0.00  0.00    +0.000 OA
ATOM     29  C   UNL     1     114.271 130.379 136.419  0.00  0.00    +0.000 C 
ATOM     30  C   UNL     1     113.759 130.725 136.964  0.00  0.00    +0.000 C 
ATOM     31  C   UNL     1     113.969 129.971 135.768  0.00  0.00    +0.000 C 
ATOM     32  C   UNL     1     112.943 130.665 136.858  0.00  0.00    +0.000 C 
ATOM     33  C   UNL     1     113.153 129.911 135.663  0.00  0.00    +0.000 C 
BRANCH  32  35
ATOM     34  O   UNL     1     111.817 131.500 137.139  0.00  0.00    +0.000 OA
ATOM     35  C   UNL     1     112.429 131.012 137.403  0.00  0.00    +0.000 C 
ENDBRANCH  32  35
ENDBRANCH  24  33
ENDBRANCH   4  24
TORSDOF 5
ENDMDL
MODEL 3
REMARK VINA RESULT:      -9.6      7.351      8.806
REMARK  Name = 44259537
REMARK  5 active torsions:
REMARK  status: ('A' for Active; 'I' for Inactive)
REMARK    1  A    between atoms: O_2  and  C_18
REMARK    2  A    between atoms: O_2  and  C_20
REMARK    3  A    between atoms: O_8  and  C_25
REMARK    4  A    between atoms: C_17  and  C_19
REMARK    5  A    between atoms: C_27  and  C_29
REMARK                            x       y       z     vdW  Elec       q    Type
REMARK                         _______ _______ _______ _____ _____    ______ ____
ROOT
ATOM      1  O   UNL     1     111.450 127.129 136.223  0.00  0.00    +0.000 OA
ATOM      2  O   UNL     1     113.474 126.474 136.720  0.00  0.00    +0.000 OA
ATOM      3  O   UNL     1     113.773 127.979 136.112  0.00  0.00    +0.000 OA
ATOM      4  C   UNL     1     111.091 129.144 135.328  0.00  0.00    +0.000 A 
ATOM      5  C   UNL     1     110.941 128.360 135.645  0.00  0.00    +0.000 A 
ATOM      6  C   UNL     1     111.897 129.439 135.289  0.00  0.00    +0.000 A 
ATOM      7  C   UNL     1     111.601 127.880 135.920  0.00  0.00    +0.000 A 
ATOM      8  C   UNL     1     112.374 128.164 135.883  0.00  0.00    +0.000 A 
ATOM      9  C   UNL     1     112.543 128.946 135.569  0.00  0.00    +0.000 A 
ATOM     10  C   UNL     1     112.999 127.695 136.149  0.00  0.00    +0.000 A 
ATOM     11  C   UNL     1     112.075 126.660 136.490  0.00  0.00    +0.000 A 
ATOM     12  C   UNL     1     112.849 126.943 136.453  0.00  0.00    +0.000 A 
ENDROOT
BRANCH  11  16
ATOM     13  O   UNL     1     111.894 123.831 136.120  0.00  0.00    +0.000 OA
ATOM     14  O   UNL     1     111.358 124.974 138.684  0.00  0.00    +0.000 OA
ATOM     15  O   UNL     1     111.477 123.651 137.705  0.00  0.00    +0.000 OA
ATOM     16  C   UNL     1     111.925 125.907 136.794  0.00  0.00    +0.000 A 
ATOM     17  C   UNL     1     111.716 125.816 137.587  0.00  0.00    +0.000 A 
ATOM     18  C   UNL     1     111.985 125.246 136.304  0.00  0.00    +0.000 A 
ATOM     19  C   UNL     1     111.835 124.493 136.608  0.00  0.00    +0.000 A 
ATOM     20  C   UNL     1     111.567 125.064 137.890  0.00  0.00    +0.000 A 
ATOM     21  C   UNL     1     111.626 124.402 137.401  0.00  0.00    +0.000 A 
ENDBRANCH  11  16
BRANCH   9  22
ATOM     22  O   UNL     1     113.320 129.221 135.536  0.00  0.00    +0.000 OA
ATOM     23  C   UNL     1     113.629 129.500 134.824  0.00  0.00    +0.000 C 
ENDBRANCH   9  22
BRANCH   4  24
ATOM     24  O   UNL     1     110.465 129.611 135.062  0.00  0.00    +0.000 OA
BRANCH  24  33
ATOM     25  O   UNL     1     110.231 130.377 136.245  0.00  0.00    +0.000 OA
ATOM     26  O   UNL     1     107.791 130.092 135.948  0.00  0.00    +0.000 OA
ATOM     27  O   UNL     1     108.371 130.953 137.229  0.00  0.00    +0.000 OA
ATOM     28  O   UNL     1     108.838 129.420 134.864  0.00  0.00    +0.000 OA
ATOM     29  C   UNL     1     108.604 130.187 136.047  0.00  0.00    +0.000 C 
ATOM     30  C   UNL     1     108.894 130.617 136.688  0.00  0.00    +0.000 C 
ATOM     31  C   UNL     1     109.128 129.851 135.505  0.00  0.00    +0.000 C 
ATOM     32  C   UNL     1     109.707 130.712 136.787  0.00  0.00    +0.000 C 
ATOM     33  C   UNL     1     109.941 129.946 135.604  0.00  0.00    +0.000 C 
BRANCH  32  35
ATOM     34  O   UNL     1     110.557 131.738 137.305  0.00  0.00    +0.000 OA
ATOM     35  C   UNL     1     109.997 131.143 137.428  0.00  0.00    +0.000 C 
ENDBRANCH  32  35
ENDBRANCH  24  33
ENDBRANCH   4  24
TORSDOF 5
ENDMDL
MODEL 4
REMARK VINA RESULT:      -9.5      3.999      6.251
REMARK  Name = 44259537
REMARK  5 active torsions:
REMARK  status: ('A' for Active; 'I' for Inactive)
REMARK    1  A    between atoms: O_2  and  C_18
REMARK    2  A    between atoms: O_2  and  C_20
REMARK    3  A    between atoms: O_8  and  C_25
REMARK    4  A    between atoms: C_17  and  C_19
REMARK    5  A    between atoms: C_27  and  C_29
REMARK                            x       y       z     vdW  Elec       q    Type
REMARK                         _______ _______ _______ _____ _____    ______ ____
ROOT
ATOM      1  O   UNL     1     105.487 126.278 144.251  0.00  0.00    +0.000 OA
ATOM      2  O   UNL     1     106.777 128.036 144.366  0.00  0.00    +0.000 OA
ATOM      3  O   UNL     1     107.207 127.243 145.747  0.00  0.00    +0.000 OA
ATOM      4  C   UNL     1     105.543 124.717 145.849  0.00  0.00    +0.000 A 
ATOM      5  C   UNL     1     105.322 125.134 145.131  0.00  0.00    +0.000 A 
ATOM      6  C   UNL     1     106.139 125.052 146.368  0.00  0.00    +0.000 A 
ATOM      7  C   UNL     1     105.703 125.882 144.942  0.00  0.00    +0.000 A 
ATOM      8  C   UNL     1     106.276 126.203 145.440  0.00  0.00    +0.000 A 
ATOM      9  C   UNL     1     106.509 125.800 146.162  0.00  0.00    +0.000 A 
ATOM     10  C   UNL     1     106.634 126.922 145.248  0.00  0.00    +0.000 A 
ATOM     11  C   UNL     1     105.845 126.996 144.059  0.00  0.00    +0.000 A 
ATOM     12  C   UNL     1     106.419 127.318 144.558  0.00  0.00    +0.000 A 
ENDROOT
BRANCH  11  16
ATOM     13  O   UNL     1     106.107 127.377 141.238  0.00  0.00    +0.000 OA
ATOM     14  O   UNL     1     104.290 128.996 142.736  0.00  0.00    +0.000 OA
ATOM     15  O   UNL     1     104.983 128.583 141.297  0.00  0.00    +0.000 OA
ATOM     16  C   UNL     1     105.630 127.393 143.368  0.00  0.00    +0.000 A 
ATOM     17  C   UNL     1     105.068 127.996 143.397  0.00  0.00    +0.000 A 
ATOM     18  C   UNL     1     105.976 127.186 142.649  0.00  0.00    +0.000 A 
ATOM     19  C   UNL     1     105.761 127.583 141.958  0.00  0.00    +0.000 A 
ATOM     20  C   UNL     1     104.852 128.393 142.707  0.00  0.00    +0.000 A 
ATOM     21  C   UNL     1     105.199 128.186 141.987  0.00  0.00    +0.000 A 
ENDBRANCH  11  16
BRANCH   9  22
ATOM     22  O   UNL     1     107.083 126.129 146.655  0.00  0.00    +0.000 OA
ATOM     23  C   UNL     1     107.455 125.662 147.225  0.00  0.00    +0.000 C 
ENDBRANCH   9  22
BRANCH   4  24
ATOM     24  O   UNL     1     105.183 123.999 146.039  0.00  0.00    +0.000 OA
BRANCH  24  33
ATOM     25  O   UNL     1     104.105 124.535 146.808  0.00  0.00    +0.000 OA
ATOM     26  O   UNL     1     102.583 122.825 145.866  0.00  0.00    +0.000 OA
ATOM     27  O   UNL     1     102.013 123.931 146.949  0.00  0.00    +0.000 OA
ATOM     28  O   UNL     1     104.169 122.859 145.411  0.00  0.00    +0.000 OA
ATOM     29  C   UNL     1     103.090 123.395 146.180  0.00  0.00    +0.000 C 
ATOM     30  C   UNL     1     102.805 123.948 146.721  0.00  0.00    +0.000 C 
ATOM     31  C   UNL     1     103.883 123.412 145.952  0.00  0.00    +0.000 C 
ATOM     32  C   UNL     1     103.312 124.518 147.035  0.00  0.00    +0.000 C 
ATOM     33  C   UNL     1     104.390 123.982 146.266  0.00  0.00    +0.000 C 
BRANCH  32  35
ATOM     34  O   UNL     1     103.418 125.185 148.294  0.00  0.00    +0.000 OA
ATOM     35  C   UNL     1     103.027 125.071 147.576  0.00  0.00    +0.000 C 
ENDBRANCH  32  35
ENDBRANCH  24  33
ENDBRANCH   4  24
TORSDOF 5
ENDMDL
MODEL 5
REMARK VINA RESULT:      -9.5      3.698      5.305
REMARK  Name = 44259537
REMARK  5 active torsions:
REMARK  status: ('A' for Active; 'I' for Inactive)
REMARK    1  A    between atoms: O_2  and  C_18
REMARK    2  A    between atoms: O_2  and  C_20
REMARK    3  A    between atoms: O_8  and  C_25
REMARK    4  A    between atoms: C_17  and  C_19
REMARK    5  A    between atoms: C_27  and  C_29
REMARK                            x       y       z     vdW  Elec       q    Type
REMARK                         _______ _______ _______ _____ _____    ______ ____
ROOT
ATOM      1  O   UNL     1     104.950 127.698 142.332  0.00  0.00    +0.000 OA
ATOM      2  O   UNL     1     105.792 129.567 141.581  0.00  0.00    +0.000 OA
ATOM      3  O   UNL     1     107.166 128.698 141.865  0.00  0.00    +0.000 OA
ATOM      4  C   UNL     1     106.281 126.008 142.935  0.00  0.00    +0.000 A 
ATOM      5  C   UNL     1     105.569 126.465 142.785  0.00  0.00    +0.000 A 
ATOM      6  C   UNL     1     107.050 126.354 142.773  0.00  0.00    +0.000 A 
ATOM      7  C   UNL     1     105.636 127.264 142.474  0.00  0.00    +0.000 A 
ATOM      8  C   UNL     1     106.375 127.597 142.319  0.00  0.00    +0.000 A 
ATOM      9  C   UNL     1     107.097 127.155 142.463  0.00  0.00    +0.000 A 
ATOM     10  C   UNL     1     106.427 128.365 142.021  0.00  0.00    +0.000 A 
ATOM     11  C   UNL     1     105.002 128.466 142.035  0.00  0.00    +0.000 A 
ATOM     12  C   UNL     1     105.740 128.799 141.879  0.00  0.00    +0.000 A 
ENDROOT
BRANCH  11  16
ATOM     13  O   UNL     1     102.860 129.213 140.295  0.00  0.00    +0.000 OA
ATOM     14  O   UNL     1     103.023 130.327 142.922  0.00  0.00    +0.000 OA
ATOM     15  O   UNL     1     102.255 130.204 141.467  0.00  0.00    +0.000 OA
ATOM     16  C   UNL     1     104.315 128.900 141.892  0.00  0.00    +0.000 A 
ATOM     17  C   UNL     1     104.012 129.396 142.478  0.00  0.00    +0.000 A 
ATOM     18  C   UNL     1     103.931 128.839 141.165  0.00  0.00    +0.000 A 
ATOM     19  C   UNL     1     103.244 129.274 141.022  0.00  0.00    +0.000 A 
ATOM     20  C   UNL     1     103.325 129.831 142.336  0.00  0.00    +0.000 A 
ATOM     21  C   UNL     1     102.941 129.770 141.608  0.00  0.00    +0.000 A 
ENDBRANCH  11  16
BRANCH   9  22
ATOM     22  O   UNL     1     107.831 127.496 142.304  0.00  0.00    +0.000 OA
ATOM     23  C   UNL     1     108.401 127.073 141.883  0.00  0.00    +0.000 C 
ENDBRANCH   9  22
BRANCH   4  24
ATOM     24  O   UNL     1     106.227 125.240 143.233  0.00  0.00    +0.000 OA
BRANCH  24  33
ATOM     25  O   UNL     1     106.367 125.560 144.619  0.00  0.00    +0.000 OA
ATOM     26  O   UNL     1     104.653 123.865 145.182  0.00  0.00    +0.000 OA
ATOM     27  O   UNL     1     105.365 124.749 146.379  0.00  0.00    +0.000 OA
ATOM     28  O   UNL     1     105.084 124.111 143.609  0.00  0.00    +0.000 OA
ATOM     29  C   UNL     1     105.224 124.430 144.994  0.00  0.00    +0.000 C 
ATOM     30  C   UNL     1     105.580 124.871 145.593  0.00  0.00    +0.000 C 
ATOM     31  C   UNL     1     105.440 124.552 144.207  0.00  0.00    +0.000 C 
ATOM     32  C   UNL     1     106.151 125.436 145.405  0.00  0.00    +0.000 C 
ATOM     33  C   UNL     1     106.011 125.117 144.019  0.00  0.00    +0.000 C 
BRANCH  32  35
ATOM     34  O   UNL     1     107.325 125.840 146.114  0.00  0.00    +0.000 OA
ATOM     35  C   UNL     1     106.507 125.878 146.003  0.00  0.00    +0.000 C 
ENDBRANCH  32  35
ENDBRANCH  24  33
ENDBRANCH   4  24
TORSDOF 5
ENDMDL
MODEL 6
REMARK VINA RESULT:      -9.5      5.628      6.914
REMARK  Name = 44259537
REMARK  5 active torsions:
REMARK  status: ('A' for Active; 'I' for Inactive)
REMARK    1  A    between atoms: O_2  and  C_18
REMARK    2  A    between atoms: O_2  and  C_20
REMARK    3  A    between atoms: O_8  and  C_25
REMARK    4  A    between atoms: C_17  and  C_19
REMARK    5  A    between atoms: C_27  and  C_29
REMARK                            x       y       z     vdW  Elec       q    Type
REMARK                         _______ _______ _______ _____ _____    ______ ____
ROOT
ATOM      1  O   UNL     1     110.550 127.331 137.098  0.00  0.00    +0.000 OA
ATOM      2  O   UNL     1     109.923 126.505 135.176  0.00  0.00    +0.000 OA
ATOM      3  O   UNL     1     110.564 125.166 135.896  0.00  0.00    +0.000 OA
ATOM      4  C   UNL     1     111.532 126.034 138.630  0.00  0.00    +0.000 A 
ATOM      5  C   UNL     1     111.197 126.728 138.250  0.00  0.00    +0.000 A 
ATOM      6  C   UNL     1     111.537 125.283 138.213  0.00  0.00    +0.000 A 
ATOM      7  C   UNL     1     110.871 126.661 137.457  0.00  0.00    +0.000 A 
ATOM      8  C   UNL     1     110.875 125.940 137.057  0.00  0.00    +0.000 A 
ATOM      9  C   UNL     1     111.206 125.236 137.421  0.00  0.00    +0.000 A 
ATOM     10  C   UNL     1     110.560 125.888 136.297  0.00  0.00    +0.000 A 
ATOM     11  C   UNL     1     110.234 127.279 136.337  0.00  0.00    +0.000 A 
ATOM     12  C   UNL     1     110.239 126.557 135.936  0.00  0.00    +0.000 A 
ENDROOT
BRANCH  11  16
ATOM     13  O   UNL     1     110.542 129.584 134.675  0.00  0.00    +0.000 OA
ATOM     14  O   UNL     1     108.000 128.990 135.838  0.00  0.00    +0.000 OA
ATOM     15  O   UNL     1     108.950 129.956 134.897  0.00  0.00    +0.000 OA
ATOM     16  C   UNL     1     109.913 127.948 135.977  0.00  0.00    +0.000 A 
ATOM     17  C   UNL     1     109.117 128.135 136.088  0.00  0.00    +0.000 A 
ATOM     18  C   UNL     1     110.389 128.431 135.506  0.00  0.00    +0.000 A 
ATOM     19  C   UNL     1     110.068 129.100 135.146  0.00  0.00    +0.000 A 
ATOM     20  C   UNL     1     108.797 128.804 135.727  0.00  0.00    +0.000 A 
ATOM     21  C   UNL     1     109.272 129.287 135.256  0.00  0.00    +0.000 A 
ENDBRANCH  11  16
BRANCH   9  22
ATOM     22  O   UNL     1     111.207 124.519 137.014  0.00  0.00    +0.000 OA
ATOM     23  C   UNL     1     111.838 123.995 137.101  0.00  0.00    +0.000 C 
ENDBRANCH   9  22
BRANCH   4  24
ATOM     24  O   UNL     1     111.848 126.089 139.390  0.00  0.00    +0.000 OA
BRANCH  24  33
ATOM     25  O   UNL     1     110.631 125.919 140.119  0.00  0.00    +0.000 OA
ATOM     26  O   UNL     1     111.361 127.639 141.742  0.00  0.00    +0.000 OA
ATOM     27  O   UNL     1     109.901 126.895 141.930  0.00  0.00    +0.000 OA
ATOM     28  O   UNL     1     112.335 127.236 140.472  0.00  0.00    +0.000 OA
ATOM     29  C   UNL     1     111.118 127.065 141.201  0.00  0.00    +0.000 C 
ATOM     30  C   UNL     1     110.388 126.694 141.295  0.00  0.00    +0.000 C 
ATOM     31  C   UNL     1     111.605 126.865 140.566  0.00  0.00    +0.000 C 
ATOM     32  C   UNL     1     110.144 126.120 140.754  0.00  0.00    +0.000 C 
ATOM     33  C   UNL     1     111.361 126.291 140.025  0.00  0.00    +0.000 C 
BRANCH  32  35
ATOM     34  O   UNL     1     109.378 124.927 140.931  0.00  0.00    +0.000 OA
ATOM     35  C   UNL     1     109.414 125.748 140.848  0.00  0.00    +0.000 C 
ENDBRANCH  32  35
ENDBRANCH  24  33
ENDBRANCH   4  24
TORSDOF 5
ENDMDL
MODEL 7
REMARK VINA RESULT:      -9.4      7.171      8.753
REMARK  Name = 44259537
REMARK  5 active torsions:
REMARK  status: ('A' for Active; 'I' for Inactive)
REMARK    1  A    between atoms: O_2  and  C_18
REMARK    2  A    between atoms: O_2  and  C_20
REMARK    3  A    between atoms: O_8  and  C_25
REMARK    4  A    between atoms: C_17  and  C_19
REMARK    5  A    between atoms: C_27  and  C_29
REMARK                            x       y       z     vdW  Elec       q    Type
REMARK                         _______ _______ _______ _____ _____    ______ ____
ROOT
ATOM      1  O   UNL     1     112.190 126.808 136.267  0.00  0.00    +0.000 OA
ATOM      2  O   UNL     1     112.052 124.629 136.226  0.00  0.00    +0.000 OA
ATOM      3  O   UNL     1     110.667 125.044 135.430  0.00  0.00    +0.000 OA
ATOM      4  C   UNL     1     110.596 128.069 135.338  0.00  0.00    +0.000 A 
ATOM      5  C   UNL     1     111.316 127.847 135.752  0.00  0.00    +0.000 A 
ATOM      6  C   UNL     1     110.068 127.457 135.048  0.00  0.00    +0.000 A 
ATOM      7  C   UNL     1     111.497 127.014 135.870  0.00  0.00    +0.000 A 
ATOM      8  C   UNL     1     110.990 126.427 135.591  0.00  0.00    +0.000 A 
ATOM      9  C   UNL     1     110.266 126.630 135.175  0.00  0.00    +0.000 A 
ATOM     10  C   UNL     1     111.175 125.632 135.709  0.00  0.00    +0.000 A 
ATOM     11  C   UNL     1     112.374 126.012 136.386  0.00  0.00    +0.000 A 
ATOM     12  C   UNL     1     111.867 125.424 136.107  0.00  0.00    +0.000 A 
ENDROOT
BRANCH  11  16
ATOM     13  O   UNL     1     115.056 125.024 136.338  0.00  0.00    +0.000 OA
ATOM     14  O   UNL     1     113.846 125.755 138.822  0.00  0.00    +0.000 OA
ATOM     15  O   UNL     1     115.143 125.182 137.978  0.00  0.00    +0.000 OA
ATOM     16  C   UNL     1     113.067 125.805 136.784  0.00  0.00    +0.000 A 
ATOM     17  C   UNL     1     113.111 125.883 137.604  0.00  0.00    +0.000 A 
ATOM     18  C   UNL     1     113.715 125.518 136.361  0.00  0.00    +0.000 A 
ATOM     19  C   UNL     1     114.407 125.311 136.759  0.00  0.00    +0.000 A 
ATOM     20  C   UNL     1     113.803 125.676 138.002  0.00  0.00    +0.000 A 
ATOM     21  C   UNL     1     114.452 125.389 137.579  0.00  0.00    +0.000 A 
ENDBRANCH  11  16
BRANCH   9  22
ATOM     22  O   UNL     1     109.765 126.036 134.899  0.00  0.00    +0.000 OA
ATOM     23  C   UNL     1     108.953 126.082 135.040  0.00  0.00    +0.000 C 
ENDBRANCH   9  22
BRANCH   4  24
ATOM     24  O   UNL     1     110.413 128.865 135.221  0.00  0.00    +0.000 OA
BRANCH  24  33
ATOM     25  O   UNL     1     109.974 129.152 136.550  0.00  0.00    +0.000 OA
ATOM     26  O   UNL     1     108.180 130.597 135.644  0.00  0.00    +0.000 OA
ATOM     27  O   UNL     1     108.339 130.402 137.274  0.00  0.00    +0.000 OA
ATOM     28  O   UNL     1     109.218 129.828 134.617  0.00  0.00    +0.000 OA
ATOM     29  C   UNL     1     108.778 130.116 135.946  0.00  0.00    +0.000 C 
ATOM     30  C   UNL     1     108.857 130.018 136.761  0.00  0.00    +0.000 C 
ATOM     31  C   UNL     1     109.297 129.731 135.432  0.00  0.00    +0.000 C 
ATOM     32  C   UNL     1     109.455 129.536 137.063  0.00  0.00    +0.000 C 
ATOM     33  C   UNL     1     109.894 129.249 135.734  0.00  0.00    +0.000 C 
BRANCH  32  35
ATOM     34  O   UNL     1     109.311 128.726 138.231  0.00  0.00    +0.000 OA
ATOM     35  C   UNL     1     109.534 129.439 137.878  0.00  0.00    +0.000 C 
ENDBRANCH  32  35
ENDBRANCH  24  33
ENDBRANCH   4  24
TORSDOF 5
ENDMDL
MODEL 8
REMARK VINA RESULT:      -9.4      7.562      9.296
REMARK  Name = 44259537
REMARK  5 active torsions:
REMARK  status: ('A' for Active; 'I' for Inactive)
REMARK    1  A    between atoms: O_2  and  C_18
REMARK    2  A    between atoms: O_2  and  C_20
REMARK    3  A    between atoms: O_8  and  C_25
REMARK    4  A    between atoms: C_17  and  C_19
REMARK    5  A    between atoms: C_27  and  C_29
REMARK                            x       y       z     vdW  Elec       q    Type
REMARK                         _______ _______ _______ _____ _____    ______ ____
ROOT
ATOM      1  O   UNL     1     111.149 128.541 136.653  0.00  0.00    +0.000 OA
ATOM      2  O   UNL     1     111.067 129.938 134.977  0.00  0.00    +0.000 OA
ATOM      3  O   UNL     1     112.606 129.362 134.828  0.00  0.00    +0.000 OA
ATOM      4  C   UNL     1     113.003 127.364 137.068  0.00  0.00    +0.000 A 
ATOM      5  C   UNL     1     112.202 127.668 137.141  0.00  0.00    +0.000 A 
ATOM      6  C   UNL     1     113.508 127.649 136.435  0.00  0.00    +0.000 A 
ATOM      7  C   UNL     1     111.918 128.253 136.578  0.00  0.00    +0.000 A 
ATOM      8  C   UNL     1     112.404 128.527 135.970  0.00  0.00    +0.000 A 
ATOM      9  C   UNL     1     113.207 128.234 135.882  0.00  0.00    +0.000 A 
ATOM     10  C   UNL     1     112.120 129.088 135.436  0.00  0.00    +0.000 A 
ATOM     11  C   UNL     1     110.865 129.103 136.119  0.00  0.00    +0.000 A 
ATOM     12  C   UNL     1     111.351 129.377 135.511  0.00  0.00    +0.000 A 
ENDROOT
BRANCH  11  16
ATOM     13  O   UNL     1     109.057 131.135 136.996  0.00  0.00    +0.000 OA
ATOM     14  O   UNL     1     108.056 128.799 135.689  0.00  0.00    +0.000 OA
ATOM     15  O   UNL     1     107.787 130.255 136.417  0.00  0.00    +0.000 OA
ATOM     16  C   UNL     1     110.096 129.391 136.194  0.00  0.00    +0.000 A 
ATOM     17  C   UNL     1     109.461 128.951 135.904  0.00  0.00    +0.000 A 
ATOM     18  C   UNL     1     109.961 130.119 136.558  0.00  0.00    +0.000 A 
ATOM     19  C   UNL     1     109.192 130.407 136.632  0.00  0.00    +0.000 A 
ATOM     20  C   UNL     1     108.691 129.240 135.979  0.00  0.00    +0.000 A 
ATOM     21  C   UNL     1     108.557 129.968 136.343  0.00  0.00    +0.000 A 
ENDBRANCH  11  16
BRANCH   9  22
ATOM     22  O   UNL     1     113.685 128.513 135.271  0.00  0.00    +0.000 OA
ATOM     23  C   UNL     1     114.445 128.792 135.435  0.00  0.00    +0.000 C 
ENDBRANCH   9  22
BRANCH   4  24
ATOM     24  O   UNL     1     113.283 126.803 137.603  0.00  0.00    +0.000 OA
BRANCH  24  33
ATOM     25  O   UNL     1     112.644 125.664 137.022  0.00  0.00    +0.000 OA
ATOM     26  O   UNL     1     114.644 124.291 137.513  0.00  0.00    +0.000 OA
ATOM     27  O   UNL     1     113.338 123.611 136.769  0.00  0.00    +0.000 OA
ATOM     28  O   UNL     1     114.617 125.887 137.930  0.00  0.00    +0.000 OA
ATOM     29  C   UNL     1     113.977 124.749 137.349  0.00  0.00    +0.000 C 
ATOM     30  C   UNL     1     113.325 124.409 136.977  0.00  0.00    +0.000 C 
ATOM     31  C   UNL     1     113.964 125.547 137.558  0.00  0.00    +0.000 C 
ATOM     32  C   UNL     1     112.659 124.866 136.814  0.00  0.00    +0.000 C 
ATOM     33  C   UNL     1     113.298 126.005 137.394  0.00  0.00    +0.000 C 
BRANCH  32  35
ATOM     34  O   UNL     1     111.253 124.614 136.769  0.00  0.00    +0.000 OA
ATOM     35  C   UNL     1     112.005 124.527 136.441  0.00  0.00    +0.000 C 
ENDBRANCH  32  35
ENDBRANCH  24  33
ENDBRANCH   4  24
TORSDOF 5
ENDMDL
MODEL 9
REMARK VINA RESULT:      -9.3      7.405      9.270
REMARK  Name = 44259537
REMARK  5 active torsions:
REMARK  status: ('A' for Active; 'I' for Inactive)
REMARK    1  A    between atoms: O_2  and  C_18
REMARK    2  A    between atoms: O_2  and  C_20
REMARK    3  A    between atoms: O_8  and  C_25
REMARK    4  A    between atoms: C_17  and  C_19
REMARK    5  A    between atoms: C_27  and  C_29
REMARK                            x       y       z     vdW  Elec       q    Type
REMARK                         _______ _______ _______ _____ _____    ______ ____
ROOT
ATOM      1  O   UNL     1     112.488 127.324 137.170  0.00  0.00    +0.000 OA
ATOM      2  O   UNL     1     114.354 127.310 136.036  0.00  0.00    +0.000 OA
ATOM      3  O   UNL     1     113.857 128.866 135.801  0.00  0.00    +0.000 OA
ATOM      4  C   UNL     1     111.241 129.174 137.291  0.00  0.00    +0.000 A 
ATOM      5  C   UNL     1     111.505 128.365 137.411  0.00  0.00    +0.000 A 
ATOM      6  C   UNL     1     111.716 129.709 136.817  0.00  0.00    +0.000 A 
ATOM      7  C   UNL     1     112.241 128.102 137.052  0.00  0.00    +0.000 A 
ATOM      8  C   UNL     1     112.697 128.616 136.596  0.00  0.00    +0.000 A 
ATOM      9  C   UNL     1     112.449 129.428 136.466  0.00  0.00    +0.000 A 
ATOM     10  C   UNL     1     113.401 128.352 136.257  0.00  0.00    +0.000 A 
ATOM     11  C   UNL     1     113.193 127.060 136.831  0.00  0.00    +0.000 A 
ATOM     12  C   UNL     1     113.650 127.574 136.375  0.00  0.00    +0.000 A 
ENDROOT
BRANCH  11  16
ATOM     13  O   UNL     1     114.871 125.172 138.170  0.00  0.00    +0.000 OA
ATOM     14  O   UNL     1     113.005 124.280 136.197  0.00  0.00    +0.000 OA
ATOM     15  O   UNL     1     114.186 123.949 137.301  0.00  0.00    +0.000 OA
ATOM     16  C   UNL     1     113.441 126.282 136.949  0.00  0.00    +0.000 A 
ATOM     17  C   UNL     1     113.099 125.670 136.515  0.00  0.00    +0.000 A 
ATOM     18  C   UNL     1     114.032 126.117 137.501  0.00  0.00    +0.000 A 
ATOM     19  C   UNL     1     114.280 125.339 137.618  0.00  0.00    +0.000 A 
ATOM     20  C   UNL     1     113.348 124.892 136.632  0.00  0.00    +0.000 A 
ATOM     21  C   UNL     1     113.938 124.726 137.184  0.00  0.00    +0.000 A 
ENDBRANCH  11  16
BRANCH   9  22
ATOM     22  O   UNL     1     112.911 129.935 136.008  0.00  0.00    +0.000 OA
ATOM     23  C   UNL     1     113.156 130.661 136.315  0.00  0.00    +0.000 C 
ENDBRANCH   9  22
BRANCH   4  24
ATOM     24  O   UNL     1     110.536 129.435 137.632  0.00  0.00    +0.000 OA
BRANCH  24  33
ATOM     25  O   UNL     1     109.623 128.904 136.670  0.00  0.00    +0.000 OA
ATOM     26  O   UNL     1     108.304 130.996 136.766  0.00  0.00    +0.000 OA
ATOM     27  O   UNL     1     107.831 129.768 135.773  0.00  0.00    +0.000 OA
ATOM     28  O   UNL     1     109.657 130.830 137.696  0.00  0.00    +0.000 OA
ATOM     29  C   UNL     1     108.744 130.299 136.734  0.00  0.00    +0.000 C 
ATOM     30  C   UNL     1     108.507 129.685 136.237  0.00  0.00    +0.000 C 
ATOM     31  C   UNL     1     109.420 130.216 137.199  0.00  0.00    +0.000 C 
ATOM     32  C   UNL     1     108.946 128.987 136.205  0.00  0.00    +0.000 C 
ATOM     33  C   UNL     1     109.860 129.519 137.167  0.00  0.00    +0.000 C 
BRANCH  32  35
ATOM     34  O   UNL     1     108.530 127.632 136.026  0.00  0.00    +0.000 OA
ATOM     35  C   UNL     1     108.710 128.373 135.709  0.00  0.00    +0.000 C 
ENDBRANCH  32  35
ENDBRANCH  24  33
ENDBRANCH   4  24
TORSDOF 5
ENDMDL
MODEL 10
REMARK VINA RESULT:      -9.3      5.107      7.465
REMARK  Name = 44259537
REMARK  5 active torsions:
REMARK  status: ('A' for Active; 'I' for Inactive)
REMARK    1  A    between atoms: O_2  and  C_18
REMARK    2  A    between atoms: O_2  and  C_20
REMARK    3  A    between atoms: O_8  and  C_25
REMARK    4  A    between atoms: C_17  and  C_19
REMARK    5  A    between atoms: C_27  and  C_29
REMARK                            x       y       z     vdW  Elec       q    Type
REMARK                         _______ _______ _______ _____ _____    ______ ____
ROOT
ATOM      1  O   UNL     1     104.296 124.737 147.428  0.00  0.00    +0.000 OA
ATOM      2  O   UNL     1     104.234 124.840 149.608  0.00  0.00    +0.000 OA
ATOM      3  O   UNL     1     105.854 124.997 149.334  0.00  0.00    +0.000 OA
ATOM      4  C   UNL     1     106.238 124.886 146.334  0.00  0.00    +0.000 A 
ATOM      5  C   UNL     1     105.396 124.805 146.482  0.00  0.00    +0.000 A 
ATOM      6  C   UNL     1     106.779 124.976 146.995  0.00  0.00    +0.000 A 
ATOM      7  C   UNL     1     105.105 124.815 147.292  0.00  0.00    +0.000 A 
ATOM      8  C   UNL     1     105.625 124.902 147.927  0.00  0.00    +0.000 A 
ATOM      9  C   UNL     1     106.470 124.984 147.797  0.00  0.00    +0.000 A 
ATOM     10  C   UNL     1     105.334 124.910 148.699  0.00  0.00    +0.000 A 
ATOM     11  C   UNL     1     104.005 124.745 148.200  0.00  0.00    +0.000 A 
ATOM     12  C   UNL     1     104.525 124.832 148.836  0.00  0.00    +0.000 A 
ENDROOT
BRANCH  11  16
ATOM     13  O   UNL     1     101.717 123.090 148.638  0.00  0.00    +0.000 OA
ATOM     14  O   UNL     1     101.435 125.933 148.585  0.00  0.00    +0.000 OA
ATOM     15  O   UNL     1     100.767 124.434 148.749  0.00  0.00    +0.000 OA
ATOM     16  C   UNL     1     103.196 124.667 148.337  0.00  0.00    +0.000 A 
ATOM     17  C   UNL     1     102.720 125.339 148.393  0.00  0.00    +0.000 A 
ATOM     18  C   UNL     1     102.862 123.917 148.419  0.00  0.00    +0.000 A 
ATOM     19  C   UNL     1     102.052 123.839 148.557  0.00  0.00    +0.000 A 
ATOM     20  C   UNL     1     101.910 125.261 148.530  0.00  0.00    +0.000 A 
ATOM     21  C   UNL     1     101.576 124.511 148.612  0.00  0.00    +0.000 A 
ENDBRANCH  11  16
BRANCH   9  22
ATOM     22  O   UNL     1     106.982 125.070 148.438  0.00  0.00    +0.000 OA
ATOM     23  C   UNL     1     107.775 124.857 148.364  0.00  0.00    +0.000 C 
ENDBRANCH   9  22
BRANCH   4  24
ATOM     24  O   UNL     1     106.526 124.878 145.560  0.00  0.00    +0.000 OA
BRANCH  24  33
ATOM     25  O   UNL     1     106.588 126.286 145.326  0.00  0.00    +0.000 OA
ATOM     26  O   UNL     1     105.645 125.951 143.063  0.00  0.00    +0.000 OA
ATOM     27  O   UNL     1     106.022 127.470 143.583  0.00  0.00    +0.000 OA
ATOM     28  O   UNL     1     105.897 124.655 144.052  0.00  0.00    +0.000 OA
ATOM     29  C   UNL     1     105.959 126.063 143.817  0.00  0.00    +0.000 C 
ATOM     30  C   UNL     1     106.148 126.822 144.077  0.00  0.00    +0.000 C 
ATOM     31  C   UNL     1     106.085 125.414 144.311  0.00  0.00    +0.000 C 
ATOM     32  C   UNL     1     106.462 126.934 144.831  0.00  0.00    +0.000 C 
ATOM     33  C   UNL     1     106.400 125.525 145.066  0.00  0.00    +0.000 C 
BRANCH  32  35
ATOM     34  O   UNL     1     107.405 127.852 145.388  0.00  0.00    +0.000 OA
ATOM     35  C   UNL     1     106.651 127.693 145.092  0.00  0.00    +0.000 C 
ENDBRANCH  32  35
ENDBRANCH  24  33
ENDBRANCH   4  24
TORSDOF 5
ENDMDL
