MODEL 1
REMARK VINA RESULT:      -7.8      0.000      0.000
REMARK  Name = 72703226
REMARK  6 active torsions:
REMARK  status: ('A' for Active; 'I' for Inactive)
REMARK    1  A    between atoms: O_2  and  C_14
REMARK    2  A    between atoms: O_3  and  C_15
REMARK    3  A    between atoms: O_5  and  C_18
REMARK    4  A    between atoms: O_6  and  C_20
REMARK    5  A    between atoms: O_7  and  C_22
REMARK    6  A    between atoms: C_8  and  C_11
REMARK                            x       y       z     vdW  Elec       q    Type
REMARK                         _______ _______ _______ _____ _____    ______ ____
ROOT
ATOM      1  O   UNL     1     104.254 124.416 146.733  0.00  0.00    +0.000 OA
ATOM      2  O   UNL     1     102.865 125.409 148.603  0.00  0.00    +0.000 OA
ATOM      3  C   UNL     1     104.643 124.866 147.354  0.00  0.00    +0.000 C 
ATOM      4  C   UNL     1     104.175 125.203 147.990  0.00  0.00    +0.000 C 
ATOM      5  C   UNL     1     102.952 124.636 147.367  0.00  0.00    +0.000 A 
ATOM      6  C   UNL     1     103.402 124.311 146.757  0.00  0.00    +0.000 A 
ATOM      7  C   UNL     1     103.323 125.088 147.996  0.00  0.00    +0.000 C 
ATOM      8  C   UNL     1     102.134 124.528 147.378  0.00  0.00    +0.000 A 
ATOM      9  C   UNL     1     103.034 123.879 146.157  0.00  0.00    +0.000 A 
ATOM     10  C   UNL     1     102.216 123.771 146.170  0.00  0.00    +0.000 A 
ATOM     11  C   UNL     1     101.766 124.096 146.780  0.00  0.00    +0.000 A 
ENDROOT
BRANCH   3  12
ATOM     12  C   UNL     1     105.461 124.972 147.340  0.00  0.00    +0.000 A 
ATOM     13  C   UNL     1     105.817 125.345 146.696  0.00  0.00    +0.000 A 
ATOM     14  C   UNL     1     105.923 124.705 147.969  0.00  0.00    +0.000 A 
ATOM     15  C   UNL     1     106.635 125.451 146.680  0.00  0.00    +0.000 A 
ATOM     16  C   UNL     1     106.741 124.811 147.954  0.00  0.00    +0.000 A 
ATOM     17  C   UNL     1     107.098 125.184 147.310  0.00  0.00    +0.000 A 
BRANCH  15  18
ATOM     18  O   UNL     1     106.991 125.824 146.037  0.00  0.00    +0.000 OA
ATOM     19  C   UNL     1     106.548 126.323 145.551  0.00  0.00    +0.000 C 
ENDBRANCH  15  18
BRANCH  17  20
ATOM     20  O   UNL     1     107.915 125.290 147.296  0.00  0.00    +0.000 OA
ATOM     21  C   UNL     1     108.383 124.975 147.897  0.00  0.00    +0.000 C 
ENDBRANCH  17  20
ENDBRANCH   3  12
BRANCH   8  22
ATOM     22  O   UNL     1     101.684 124.852 147.989  0.00  0.00    +0.000 OA
ATOM     23  C   UNL     1     101.100 124.401 148.357  0.00  0.00    +0.000 C 
ENDBRANCH   8  22
BRANCH   9  24
ATOM     24  O   UNL     1     103.483 123.555 145.547  0.00  0.00    +0.000 OA
ATOM     25  C   UNL     1     103.604 122.739 145.512  0.00  0.00    +0.000 C 
ENDBRANCH   9  24
BRANCH  10  26
ATOM     26  O   UNL     1     101.848 123.339 145.570  0.00  0.00    +0.000 OA
ATOM     27  C   UNL     1     101.028 123.370 145.484  0.00  0.00    +0.000 C 
ENDBRANCH  10  26
TORSDOF 6
ENDMDL
MODEL 2
REMARK VINA RESULT:      -7.6      8.562      9.852
REMARK  Name = 72703226
REMARK  6 active torsions:
REMARK  status: ('A' for Active; 'I' for Inactive)
REMARK    1  A    between atoms: O_2  and  C_14
REMARK    2  A    between atoms: O_3  and  C_15
REMARK    3  A    between atoms: O_5  and  C_18
REMARK    4  A    between atoms: O_6  and  C_20
REMARK    5  A    between atoms: O_7  and  C_22
REMARK    6  A    between atoms: C_8  and  C_11
REMARK                            x       y       z     vdW  Elec       q    Type
REMARK                         _______ _______ _______ _____ _____    ______ ____
ROOT
ATOM      1  O   UNL     1     102.826 131.987 141.160  0.00  0.00    +0.000 OA
ATOM      2  O   UNL     1     100.747 132.225 142.585  0.00  0.00    +0.000 OA
ATOM      3  C   UNL     1     102.490 131.290 141.534  0.00  0.00    +0.000 C 
ATOM      4  C   UNL     1     101.785 131.368 142.018  0.00  0.00    +0.000 C 
ATOM      5  C   UNL     1     101.775 132.826 141.739  0.00  0.00    +0.000 A 
ATOM      6  C   UNL     1     102.452 132.752 141.275  0.00  0.00    +0.000 A 
ATOM      7  C   UNL     1     101.425 132.141 142.122  0.00  0.00    +0.000 C 
ATOM      8  C   UNL     1     101.425 133.566 141.842  0.00  0.00    +0.000 A 
ATOM      9  C   UNL     1     102.780 133.418 140.912  0.00  0.00    +0.000 A 
ATOM     10  C   UNL     1     102.429 134.157 141.016  0.00  0.00    +0.000 A 
ATOM     11  C   UNL     1     101.751 134.231 141.481  0.00  0.00    +0.000 A 
ENDROOT
BRANCH   3  12
ATOM     12  C   UNL     1     102.843 130.552 141.429  0.00  0.00    +0.000 A 
ATOM     13  C   UNL     1     102.662 130.099 140.764  0.00  0.00    +0.000 A 
ATOM     14  C   UNL     1     103.376 130.265 141.989  0.00  0.00    +0.000 A 
ATOM     15  C   UNL     1     103.013 129.360 140.658  0.00  0.00    +0.000 A 
ATOM     16  C   UNL     1     103.729 129.527 141.885  0.00  0.00    +0.000 A 
ATOM     17  C   UNL     1     103.548 129.074 141.219  0.00  0.00    +0.000 A 
BRANCH  15  18
ATOM     18  O   UNL     1     102.832 128.907 139.993  0.00  0.00    +0.000 OA
ATOM     19  C   UNL     1     102.239 129.154 139.476  0.00  0.00    +0.000 C 
ENDBRANCH  15  18
BRANCH  17  20
ATOM     20  O   UNL     1     103.899 128.336 141.114  0.00  0.00    +0.000 OA
ATOM     21  C   UNL     1     104.462 128.067 141.654  0.00  0.00    +0.000 C 
ENDBRANCH  17  20
ENDBRANCH   3  12
BRANCH   8  22
ATOM     22  O   UNL     1     100.747 133.641 142.307  0.00  0.00    +0.000 OA
ATOM     23  C   UNL     1     100.710 134.220 142.893  0.00  0.00    +0.000 C 
ENDBRANCH   8  22
BRANCH   9  24
ATOM     24  O   UNL     1     103.456 133.343 140.448  0.00  0.00    +0.000 OA
ATOM     25  C   UNL     1     104.172 133.661 140.707  0.00  0.00    +0.000 C 
ENDBRANCH   9  24
BRANCH  10  26
ATOM     26  O   UNL     1     102.756 134.823 140.653  0.00  0.00    +0.000 OA
ATOM     27  C   UNL     1     102.282 135.477 140.489  0.00  0.00    +0.000 C 
ENDBRANCH  10  26
TORSDOF 6
ENDMDL
MODEL 3
REMARK VINA RESULT:      -7.5     13.015     14.443
REMARK  Name = 72703226
REMARK  6 active torsions:
REMARK  status: ('A' for Active; 'I' for Inactive)
REMARK    1  A    between atoms: O_2  and  C_14
REMARK    2  A    between atoms: O_3  and  C_15
REMARK    3  A    between atoms: O_5  and  C_18
REMARK    4  A    between atoms: O_6  and  C_20
REMARK    5  A    between atoms: O_7  and  C_22
REMARK    6  A    between atoms: C_8  and  C_11
REMARK                            x       y       z     vdW  Elec       q    Type
REMARK                         _______ _______ _______ _____ _____    ______ ____
ROOT
ATOM      1  O   UNL     1     113.302 127.393 136.271  0.00  0.00    +0.000 OA
ATOM      2  O   UNL     1     110.950 127.607 135.357  0.00  0.00    +0.000 OA
ATOM      3  C   UNL     1     113.039 128.148 135.955  0.00  0.00    +0.000 C 
ATOM      4  C   UNL     1     112.242 128.224 135.645  0.00  0.00    +0.000 C 
ATOM      5  C   UNL     1     111.997 126.796 135.973  0.00  0.00    +0.000 A 
ATOM      6  C   UNL     1     112.763 126.724 136.271  0.00  0.00    +0.000 A 
ATOM      7  C   UNL     1     111.717 127.543 135.654  0.00  0.00    +0.000 C 
ATOM      8  C   UNL     1     111.489 126.146 135.979  0.00  0.00    +0.000 A 
ATOM      9  C   UNL     1     113.021 126.001 136.576  0.00  0.00    +0.000 A 
ATOM     10  C   UNL     1     112.512 125.351 136.582  0.00  0.00    +0.000 A 
ATOM     11  C   UNL     1     111.746 125.424 136.283  0.00  0.00    +0.000 A 
ENDROOT
BRANCH   3  12
ATOM     12  C   UNL     1     113.550 128.796 135.951  0.00  0.00    +0.000 A 
ATOM     13  C   UNL     1     113.585 129.298 136.605  0.00  0.00    +0.000 A 
ATOM     14  C   UNL     1     114.025 128.943 135.293  0.00  0.00    +0.000 A 
ATOM     15  C   UNL     1     114.095 129.946 136.601  0.00  0.00    +0.000 A 
ATOM     16  C   UNL     1     114.535 129.591 135.288  0.00  0.00    +0.000 A 
ATOM     17  C   UNL     1     114.570 130.093 135.942  0.00  0.00    +0.000 A 
BRANCH  15  18
ATOM     18  O   UNL     1     114.130 130.448 137.255  0.00  0.00    +0.000 OA
ATOM     19  C   UNL     1     113.705 130.266 137.938  0.00  0.00    +0.000 C 
ENDBRANCH  15  18
BRANCH  17  20
ATOM     20  O   UNL     1     115.080 130.741 135.938  0.00  0.00    +0.000 OA
ATOM     21  C   UNL     1     115.530 130.907 135.268  0.00  0.00    +0.000 C 
ENDBRANCH  17  20
ENDBRANCH   3  12
BRANCH   8  22
ATOM     22  O   UNL     1     110.724 126.218 135.681  0.00  0.00    +0.000 OA
ATOM     23  C   UNL     1     110.402 125.617 135.217  0.00  0.00    +0.000 C 
ENDBRANCH   8  22
BRANCH   9  24
ATOM     24  O   UNL     1     113.785 125.928 136.874  0.00  0.00    +0.000 OA
ATOM     25  C   UNL     1     114.345 125.477 136.470  0.00  0.00    +0.000 C 
ENDBRANCH   9  24
BRANCH  10  26
ATOM     26  O   UNL     1     112.770 124.628 136.886  0.00  0.00    +0.000 OA
ATOM     27  C   UNL     1     112.220 124.056 137.108  0.00  0.00    +0.000 C 
ENDBRANCH  10  26
TORSDOF 6
ENDMDL
MODEL 4
REMARK VINA RESULT:      -7.4      1.109      4.685
REMARK  Name = 72703226
REMARK  6 active torsions:
REMARK  status: ('A' for Active; 'I' for Inactive)
REMARK    1  A    between atoms: O_2  and  C_14
REMARK    2  A    between atoms: O_3  and  C_15
REMARK    3  A    between atoms: O_5  and  C_18
REMARK    4  A    between atoms: O_6  and  C_20
REMARK    5  A    between atoms: O_7  and  C_22
REMARK    6  A    between atoms: C_8  and  C_11
REMARK                            x       y       z     vdW  Elec       q    Type
REMARK                         _______ _______ _______ _____ _____    ______ ____
ROOT
ATOM      1  O   UNL     1     104.968 125.342 146.456  0.00  0.00    +0.000 OA
ATOM      2  O   UNL     1     106.348 124.318 148.315  0.00  0.00    +0.000 OA
ATOM      3  C   UNL     1     104.657 124.667 146.888  0.00  0.00    +0.000 C 
ATOM      4  C   UNL     1     105.123 124.317 147.519  0.00  0.00    +0.000 C 
ATOM      5  C   UNL     1     106.187 125.322 147.268  0.00  0.00    +0.000 A 
ATOM      6  C   UNL     1     105.740 125.658 146.661  0.00  0.00    +0.000 A 
ATOM      7  C   UNL     1     105.894 124.648 147.710  0.00  0.00    +0.000 C 
ATOM      8  C   UNL     1     106.927 125.635 147.455  0.00  0.00    +0.000 A 
ATOM      9  C   UNL     1     106.033 126.307 146.243  0.00  0.00    +0.000 A 
ATOM     10  C   UNL     1     106.773 126.619 146.431  0.00  0.00    +0.000 A 
ATOM     11  C   UNL     1     107.220 126.283 147.038  0.00  0.00    +0.000 A 
ENDROOT
BRANCH   3  12
ATOM     12  C   UNL     1     103.917 124.357 146.697  0.00  0.00    +0.000 A 
ATOM     13  C   UNL     1     103.845 123.807 146.086  0.00  0.00    +0.000 A 
ATOM     14  C   UNL     1     103.249 124.595 147.117  0.00  0.00    +0.000 A 
ATOM     15  C   UNL     1     103.106 123.496 145.895  0.00  0.00    +0.000 A 
ATOM     16  C   UNL     1     102.509 124.285 146.927  0.00  0.00    +0.000 A 
ATOM     17  C   UNL     1     102.436 123.735 146.316  0.00  0.00    +0.000 A 
BRANCH  15  18
ATOM     18  O   UNL     1     103.033 122.947 145.284  0.00  0.00    +0.000 OA
ATOM     19  C   UNL     1     103.694 122.740 144.835  0.00  0.00    +0.000 C 
ENDBRANCH  15  18
BRANCH  17  20
ATOM     20  O   UNL     1     101.697 123.425 146.125  0.00  0.00    +0.000 OA
ATOM     21  C   UNL     1     101.036 123.630 146.573  0.00  0.00    +0.000 C 
ENDBRANCH  17  20
ENDBRANCH   3  12
BRANCH   8  22
ATOM     22  O   UNL     1     107.375 125.300 148.062  0.00  0.00    +0.000 OA
ATOM     23  C   UNL     1     108.170 125.118 147.937  0.00  0.00    +0.000 C 
ENDBRANCH   8  22
BRANCH   9  24
ATOM     24  O   UNL     1     105.586 126.643 145.637  0.00  0.00    +0.000 OA
ATOM     25  C   UNL     1     105.807 126.532 144.850  0.00  0.00    +0.000 C 
ENDBRANCH   9  24
BRANCH  10  26
ATOM     26  O   UNL     1     107.065 127.268 146.013  0.00  0.00    +0.000 OA
ATOM     27  C   UNL     1     107.432 127.887 146.416  0.00  0.00    +0.000 C 
ENDBRANCH  10  26
TORSDOF 6
ENDMDL
MODEL 5
REMARK VINA RESULT:      -7.4     12.696     14.447
REMARK  Name = 72703226
REMARK  6 active torsions:
REMARK  status: ('A' for Active; 'I' for Inactive)
REMARK    1  A    between atoms: O_2  and  C_14
REMARK    2  A    between atoms: O_3  and  C_15
REMARK    3  A    between atoms: O_5  and  C_18
REMARK    4  A    between atoms: O_6  and  C_20
REMARK    5  A    between atoms: O_7  and  C_22
REMARK    6  A    between atoms: C_8  and  C_11
REMARK                            x       y       z     vdW  Elec       q    Type
REMARK                         _______ _______ _______ _____ _____    ______ ____
ROOT
ATOM      1  O   UNL     1     112.504 128.104 135.663  0.00  0.00    +0.000 OA
ATOM      2  O   UNL     1     113.343 126.143 137.028  0.00  0.00    +0.000 OA
ATOM      3  C   UNL     1     113.273 128.154 136.044  0.00  0.00    +0.000 C 
ATOM      4  C   UNL     1     113.560 127.490 136.508  0.00  0.00    +0.000 C 
ATOM      5  C   UNL     1     112.309 126.753 136.196  0.00  0.00    +0.000 A 
ATOM      6  C   UNL     1     112.033 127.390 135.751  0.00  0.00    +0.000 A 
ATOM      7  C   UNL     1     113.075 126.785 136.584  0.00  0.00    +0.000 C 
ATOM      8  C   UNL     1     111.847 126.074 136.273  0.00  0.00    +0.000 A 
ATOM      9  C   UNL     1     111.296 127.348 135.383  0.00  0.00    +0.000 A 
ATOM     10  C   UNL     1     110.835 126.669 135.460  0.00  0.00    +0.000 A 
ATOM     11  C   UNL     1     111.111 126.031 135.905  0.00  0.00    +0.000 A 
ENDROOT
BRANCH   3  12
ATOM     12  C   UNL     1     113.732 128.835 135.965  0.00  0.00    +0.000 A 
ATOM     13  C   UNL     1     113.663 129.445 136.517  0.00  0.00    +0.000 A 
ATOM     14  C   UNL     1     114.260 128.906 135.336  0.00  0.00    +0.000 A 
ATOM     15  C   UNL     1     114.122 130.126 136.439  0.00  0.00    +0.000 A 
ATOM     16  C   UNL     1     114.720 129.587 135.257  0.00  0.00    +0.000 A 
ATOM     17  C   UNL     1     114.651 130.197 135.809  0.00  0.00    +0.000 A 
BRANCH  15  18
ATOM     18  O   UNL     1     114.053 130.736 136.990  0.00  0.00    +0.000 OA
ATOM     19  C   UNL     1     113.480 130.694 137.582  0.00  0.00    +0.000 C 
ENDBRANCH  15  18
BRANCH  17  20
ATOM     20  O   UNL     1     115.109 130.877 135.730  0.00  0.00    +0.000 OA
ATOM     21  C   UNL     1     115.618 130.960 135.087  0.00  0.00    +0.000 C 
ENDBRANCH  17  20
ENDBRANCH   3  12
BRANCH   8  22
ATOM     22  O   UNL     1     112.123 125.436 136.718  0.00  0.00    +0.000 OA
ATOM     23  C   UNL     1     111.593 124.973 137.148  0.00  0.00    +0.000 C 
ENDBRANCH   8  22
BRANCH   9  24
ATOM     24  O   UNL     1     111.020 127.985 134.938  0.00  0.00    +0.000 OA
ATOM     25  C   UNL     1     110.402 128.451 135.223  0.00  0.00    +0.000 C 
ENDBRANCH   9  24
BRANCH  10  26
ATOM     26  O   UNL     1     110.097 126.627 135.092  0.00  0.00    +0.000 OA
ATOM     27  C   UNL     1     109.833 125.910 134.781  0.00  0.00    +0.000 C 
ENDBRANCH  10  26
TORSDOF 6
ENDMDL
MODEL 6
REMARK VINA RESULT:      -7.4     12.101     14.073
REMARK  Name = 72703226
REMARK  6 active torsions:
REMARK  status: ('A' for Active; 'I' for Inactive)
REMARK    1  A    between atoms: O_2  and  C_14
REMARK    2  A    between atoms: O_3  and  C_15
REMARK    3  A    between atoms: O_5  and  C_18
REMARK    4  A    between atoms: O_6  and  C_20
REMARK    5  A    between atoms: O_7  and  C_22
REMARK    6  A    between atoms: C_8  and  C_11
REMARK                            x       y       z     vdW  Elec       q    Type
REMARK                         _______ _______ _______ _____ _____    ______ ____
ROOT
ATOM      1  O   UNL     1     112.289 127.625 137.054  0.00  0.00    +0.000 OA
ATOM      2  O   UNL     1     114.261 128.375 135.653  0.00  0.00    +0.000 OA
ATOM      3  C   UNL     1     112.703 127.050 136.567  0.00  0.00    +0.000 C 
ATOM      4  C   UNL     1     113.372 127.301 136.091  0.00  0.00    +0.000 C 
ATOM      5  C   UNL     1     113.193 128.685 136.600  0.00  0.00    +0.000 A 
ATOM      6  C   UNL     1     112.550 128.443 137.058  0.00  0.00    +0.000 A 
ATOM      7  C   UNL     1     113.619 128.125 136.108  0.00  0.00    +0.000 C 
ATOM      8  C   UNL     1     113.434 129.474 136.613  0.00  0.00    +0.000 A 
ATOM      9  C   UNL     1     112.148 128.990 137.527  0.00  0.00    +0.000 A 
ATOM     10  C   UNL     1     112.390 129.779 137.539  0.00  0.00    +0.000 A 
ATOM     11  C   UNL     1     113.033 130.020 137.082  0.00  0.00    +0.000 A 
ENDROOT
BRANCH   3  12
ATOM     12  C   UNL     1     112.459 126.262 136.556  0.00  0.00    +0.000 A 
ATOM     13  C   UNL     1     111.801 126.039 136.111  0.00  0.00    +0.000 A 
ATOM     14  C   UNL     1     112.873 125.696 136.990  0.00  0.00    +0.000 A 
ATOM     15  C   UNL     1     111.557 125.252 136.100  0.00  0.00    +0.000 A 
ATOM     16  C   UNL     1     112.629 124.907 136.980  0.00  0.00    +0.000 A 
ATOM     17  C   UNL     1     111.971 124.685 136.535  0.00  0.00    +0.000 A 
BRANCH  15  18
ATOM     18  O   UNL     1     110.899 125.029 135.655  0.00  0.00    +0.000 OA
ATOM     19  C   UNL     1     110.478 125.597 135.229  0.00  0.00    +0.000 C 
ENDBRANCH  15  18
BRANCH  17  20
ATOM     20  O   UNL     1     111.728 123.898 136.525  0.00  0.00    +0.000 OA
ATOM     21  C   UNL     1     112.095 123.345 137.014  0.00  0.00    +0.000 C 
ENDBRANCH  17  20
ENDBRANCH   3  12
BRANCH   8  22
ATOM     22  O   UNL     1     114.077 129.715 136.156  0.00  0.00    +0.000 OA
ATOM     23  C   UNL     1     114.507 130.386 136.370  0.00  0.00    +0.000 C 
ENDBRANCH   8  22
BRANCH   9  24
ATOM     24  O   UNL     1     111.506 128.749 137.984  0.00  0.00    +0.000 OA
ATOM     25  C   UNL     1     111.582 128.686 138.803  0.00  0.00    +0.000 C 
ENDBRANCH   9  24
BRANCH  10  26
ATOM     26  O   UNL     1     111.988 130.326 138.009  0.00  0.00    +0.000 OA
ATOM     27  C   UNL     1     111.873 131.096 137.737  0.00  0.00    +0.000 C 
ENDBRANCH  10  26
TORSDOF 6
ENDMDL
MODEL 7
REMARK VINA RESULT:      -7.4      1.046      4.785
REMARK  Name = 72703226
REMARK  6 active torsions:
REMARK  status: ('A' for Active; 'I' for Inactive)
REMARK    1  A    between atoms: O_2  and  C_14
REMARK    2  A    between atoms: O_3  and  C_15
REMARK    3  A    between atoms: O_5  and  C_18
REMARK    4  A    between atoms: O_6  and  C_20
REMARK    5  A    between atoms: O_7  and  C_22
REMARK    6  A    between atoms: C_8  and  C_11
REMARK                            x       y       z     vdW  Elec       q    Type
REMARK                         _______ _______ _______ _____ _____    ______ ____
ROOT
ATOM      1  O   UNL     1     105.166 124.621 147.297  0.00  0.00    +0.000 OA
ATOM      2  O   UNL     1     105.575 126.595 145.764  0.00  0.00    +0.000 OA
ATOM      3  C   UNL     1     104.538 124.885 146.772  0.00  0.00    +0.000 C 
ATOM      4  C   UNL     1     104.674 125.554 146.251  0.00  0.00    +0.000 C 
ATOM      5  C   UNL     1     106.052 125.674 146.792  0.00  0.00    +0.000 A 
ATOM      6  C   UNL     1     105.921 125.031 147.292  0.00  0.00    +0.000 A 
ATOM      7  C   UNL     1     105.436 125.951 146.261  0.00  0.00    +0.000 C 
ATOM      8  C   UNL     1     106.782 126.058 146.797  0.00  0.00    +0.000 A 
ATOM      9  C   UNL     1     106.521 124.773 147.798  0.00  0.00    +0.000 A 
ATOM     10  C   UNL     1     107.250 125.158 147.803  0.00  0.00    +0.000 A 
ATOM     11  C   UNL     1     107.381 125.801 147.302  0.00  0.00    +0.000 A 
ENDROOT
BRANCH   3  12
ATOM     12  C   UNL     1     103.809 124.498 146.770  0.00  0.00    +0.000 A 
ATOM     13  C   UNL     1     103.670 123.884 146.236  0.00  0.00    +0.000 A 
ATOM     14  C   UNL     1     103.220 124.724 147.300  0.00  0.00    +0.000 A 
ATOM     15  C   UNL     1     102.943 123.497 146.232  0.00  0.00    +0.000 A 
ATOM     16  C   UNL     1     102.491 124.337 147.297  0.00  0.00    +0.000 A 
ATOM     17  C   UNL     1     102.352 123.723 146.763  0.00  0.00    +0.000 A 
BRANCH  15  18
ATOM     18  O   UNL     1     102.804 122.883 145.699  0.00  0.00    +0.000 OA
ATOM     19  C   UNL     1     103.338 122.740 145.087  0.00  0.00    +0.000 C 
ENDBRANCH  15  18
BRANCH  17  20
ATOM     20  O   UNL     1     101.624 123.336 146.760  0.00  0.00    +0.000 OA
ATOM     21  C   UNL     1     101.043 123.547 147.305  0.00  0.00    +0.000 C 
ENDBRANCH  17  20
ENDBRANCH   3  12
BRANCH   8  22
ATOM     22  O   UNL     1     106.912 126.701 146.297  0.00  0.00    +0.000 OA
ATOM     23  C   UNL     1     107.313 127.366 146.575  0.00  0.00    +0.000 C 
ENDBRANCH   8  22
BRANCH   9  24
ATOM     24  O   UNL     1     106.391 124.131 148.298  0.00  0.00    +0.000 OA
ATOM     25  C   UNL     1     106.399 124.236 149.116  0.00  0.00    +0.000 C 
ENDBRANCH   9  24
BRANCH  10  26
ATOM     26  O   UNL     1     107.850 124.901 148.308  0.00  0.00    +0.000 OA
ATOM     27  C   UNL     1     108.636 124.919 148.058  0.00  0.00    +0.000 C 
ENDBRANCH  10  26
TORSDOF 6
ENDMDL
MODEL 8
REMARK VINA RESULT:      -7.3      1.027      2.384
REMARK  Name = 72703226
REMARK  6 active torsions:
REMARK  status: ('A' for Active; 'I' for Inactive)
REMARK    1  A    between atoms: O_2  and  C_14
REMARK    2  A    between atoms: O_3  and  C_15
REMARK    3  A    between atoms: O_5  and  C_18
REMARK    4  A    between atoms: O_6  and  C_20
REMARK    5  A    between atoms: O_7  and  C_22
REMARK    6  A    between atoms: C_8  and  C_11
REMARK                            x       y       z     vdW  Elec       q    Type
REMARK                         _______ _______ _______ _____ _____    ______ ____
ROOT
ATOM      1  O   UNL     1     104.382 124.896 147.171  0.00  0.00    +0.000 OA
ATOM      2  O   UNL     1     104.040 123.489 145.094  0.00  0.00    +0.000 OA
ATOM      3  C   UNL     1     104.922 124.986 146.508  0.00  0.00    +0.000 C 
ATOM      4  C   UNL     1     104.808 124.510 145.802  0.00  0.00    +0.000 C 
ATOM      5  C   UNL     1     103.627 123.875 146.441  0.00  0.00    +0.000 A 
ATOM      6  C   UNL     1     103.736 124.332 147.119  0.00  0.00    +0.000 A 
ATOM      7  C   UNL     1     104.156 123.950 145.768  0.00  0.00    +0.000 C 
ATOM      8  C   UNL     1     103.003 123.336 146.403  0.00  0.00    +0.000 A 
ATOM      9  C   UNL     1     103.221 124.250 147.759  0.00  0.00    +0.000 A 
ATOM     10  C   UNL     1     102.598 123.711 147.720  0.00  0.00    +0.000 A 
ATOM     11  C   UNL     1     102.489 123.254 147.042  0.00  0.00    +0.000 A 
ENDROOT
BRANCH   3  12
ATOM     12  C   UNL     1     105.544 125.525 146.550  0.00  0.00    +0.000 A 
ATOM     13  C   UNL     1     106.268 125.296 146.872  0.00  0.00    +0.000 A 
ATOM     14  C   UNL     1     105.444 126.294 146.269  0.00  0.00    +0.000 A 
ATOM     15  C   UNL     1     106.892 125.834 146.914  0.00  0.00    +0.000 A 
ATOM     16  C   UNL     1     106.067 126.834 146.310  0.00  0.00    +0.000 A 
ATOM     17  C   UNL     1     106.791 126.604 146.632  0.00  0.00    +0.000 A 
BRANCH  15  18
ATOM     18  O   UNL     1     107.615 125.604 147.236  0.00  0.00    +0.000 OA
ATOM     19  C   UNL     1     107.639 125.033 147.831  0.00  0.00    +0.000 C 
ENDBRANCH  15  18
BRANCH  17  20
ATOM     20  O   UNL     1     107.413 127.143 146.674  0.00  0.00    +0.000 OA
ATOM     21  C   UNL     1     107.333 127.892 146.340  0.00  0.00    +0.000 C 
ENDBRANCH  17  20
ENDBRANCH   3  12
BRANCH   8  22
ATOM     22  O   UNL     1     102.895 122.879 145.724  0.00  0.00    +0.000 OA
ATOM     23  C   UNL     1     102.134 122.740 145.438  0.00  0.00    +0.000 C 
ENDBRANCH   8  22
BRANCH   9  24
ATOM     24  O   UNL     1     103.330 124.707 148.436  0.00  0.00    +0.000 OA
ATOM     25  C   UNL     1     102.823 125.337 148.595  0.00  0.00    +0.000 C 
ENDBRANCH   9  24
BRANCH  10  26
ATOM     26  O   UNL     1     102.083 123.630 148.360  0.00  0.00    +0.000 OA
ATOM     27  C   UNL     1     101.761 122.891 148.538  0.00  0.00    +0.000 C 
ENDBRANCH  10  26
TORSDOF 6
ENDMDL
MODEL 9
REMARK VINA RESULT:      -7.2      2.485      3.991
REMARK  Name = 72703226
REMARK  6 active torsions:
REMARK  status: ('A' for Active; 'I' for Inactive)
REMARK    1  A    between atoms: O_2  and  C_14
REMARK    2  A    between atoms: O_3  and  C_15
REMARK    3  A    between atoms: O_5  and  C_18
REMARK    4  A    between atoms: O_6  and  C_20
REMARK    5  A    between atoms: O_7  and  C_22
REMARK    6  A    between atoms: C_8  and  C_11
REMARK                            x       y       z     vdW  Elec       q    Type
REMARK                         _______ _______ _______ _____ _____    ______ ____
ROOT
ATOM      1  O   UNL     1     106.386 125.302 145.746  0.00  0.00    +0.000 OA
ATOM      2  O   UNL     1     106.523 127.816 145.476  0.00  0.00    +0.000 OA
ATOM      3  C   UNL     1     106.591 125.789 146.425  0.00  0.00    +0.000 C 
ATOM      4  C   UNL     1     106.638 126.642 146.336  0.00  0.00    +0.000 C 
ATOM      5  C   UNL     1     106.276 126.496 144.903  0.00  0.00    +0.000 A 
ATOM      6  C   UNL     1     106.230 125.676 144.988  0.00  0.00    +0.000 A 
ATOM      7  C   UNL     1     106.480 126.998 145.569  0.00  0.00    +0.000 C 
ATOM      8  C   UNL     1     106.125 126.843 144.170  0.00  0.00    +0.000 A 
ATOM      9  C   UNL     1     106.034 125.204 144.340  0.00  0.00    +0.000 A 
ATOM     10  C   UNL     1     105.883 125.552 143.608  0.00  0.00    +0.000 A 
ATOM     11  C   UNL     1     105.928 126.371 143.523  0.00  0.00    +0.000 A 
ENDROOT
BRANCH   3  12
ATOM     12  C   UNL     1     106.742 125.438 147.156  0.00  0.00    +0.000 A 
ATOM     13  C   UNL     1     106.115 125.232 147.652  0.00  0.00    +0.000 A 
ATOM     14  C   UNL     1     107.518 125.295 147.393  0.00  0.00    +0.000 A 
ATOM     15  C   UNL     1     106.264 124.882 148.383  0.00  0.00    +0.000 A 
ATOM     16  C   UNL     1     107.669 124.944 148.125  0.00  0.00    +0.000 A 
ATOM     17  C   UNL     1     107.042 124.738 148.620  0.00  0.00    +0.000 A 
BRANCH  15  18
ATOM     18  O   UNL     1     105.638 124.675 148.878  0.00  0.00    +0.000 OA
ATOM     19  C   UNL     1     104.860 124.791 148.629  0.00  0.00    +0.000 C 
ENDBRANCH  15  18
BRANCH  17  20
ATOM     20  O   UNL     1     107.193 124.388 149.351  0.00  0.00    +0.000 OA
ATOM     21  C   UNL     1     107.969 124.294 149.612  0.00  0.00    +0.000 C 
ENDBRANCH  17  20
ENDBRANCH   3  12
BRANCH   8  22
ATOM     22  O   UNL     1     106.170 127.662 144.085  0.00  0.00    +0.000 OA
ATOM     23  C   UNL     1     105.606 128.062 143.635  0.00  0.00    +0.000 C 
ENDBRANCH   8  22
BRANCH   9  24
ATOM     24  O   UNL     1     105.988 124.386 144.425  0.00  0.00    +0.000 OA
ATOM     25  C   UNL     1     105.254 124.011 144.427  0.00  0.00    +0.000 C 
ENDBRANCH   9  24
BRANCH  10  26
ATOM     26  O   UNL     1     105.686 125.080 142.960  0.00  0.00    +0.000 OA
ATOM     27  C   UNL     1     105.929 125.297 142.203  0.00  0.00    +0.000 C 
ENDBRANCH  10  26
TORSDOF 6
ENDMDL
MODEL 10
REMARK VINA RESULT:      -7.2      9.105     10.820
REMARK  Name = 72703226
REMARK  6 active torsions:
REMARK  status: ('A' for Active; 'I' for Inactive)
REMARK    1  A    between atoms: O_2  and  C_14
REMARK    2  A    between atoms: O_3  and  C_15
REMARK    3  A    between atoms: O_5  and  C_18
REMARK    4  A    between atoms: O_6  and  C_20
REMARK    5  A    between atoms: O_7  and  C_22
REMARK    6  A    between atoms: C_8  and  C_11
REMARK                            x       y       z     vdW  Elec       q    Type
REMARK                         _______ _______ _______ _____ _____    ______ ____
ROOT
ATOM      1  O   UNL     1     111.626 131.148 145.152  0.00  0.00    +0.000 OA
ATOM      2  O   UNL     1     112.456 132.427 143.131  0.00  0.00    +0.000 OA
ATOM      3  C   UNL     1     111.803 131.986 145.227  0.00  0.00    +0.000 C 
ATOM      4  C   UNL     1     112.085 132.422 144.543  0.00  0.00    +0.000 C 
ATOM      5  C   UNL     1     112.003 131.178 143.737  0.00  0.00    +0.000 A 
ATOM      6  C   UNL     1     111.733 130.759 144.393  0.00  0.00    +0.000 A 
ATOM      7  C   UNL     1     112.186 132.016 143.793  0.00  0.00    +0.000 C 
ATOM      8  C   UNL     1     112.102 130.793 143.014  0.00  0.00    +0.000 A 
ATOM      9  C   UNL     1     111.560 129.954 144.327  0.00  0.00    +0.000 A 
ATOM     10  C   UNL     1     111.659 129.570 143.604  0.00  0.00    +0.000 A 
ATOM     11  C   UNL     1     111.930 129.989 142.947  0.00  0.00    +0.000 A 
ENDROOT
BRANCH   3  12
ATOM     12  C   UNL     1     111.704 132.368 145.951  0.00  0.00    +0.000 A 
ATOM     13  C   UNL     1     111.003 132.773 146.111  0.00  0.00    +0.000 A 
ATOM     14  C   UNL     1     112.304 132.346 146.516  0.00  0.00    +0.000 A 
ATOM     15  C   UNL     1     110.902 133.155 146.835  0.00  0.00    +0.000 A 
ATOM     16  C   UNL     1     112.205 132.729 147.240  0.00  0.00    +0.000 A 
ATOM     17  C   UNL     1     111.504 133.133 147.400  0.00  0.00    +0.000 A 
BRANCH  15  18
ATOM     18  O   UNL     1     110.201 133.560 146.994  0.00  0.00    +0.000 OA
ATOM     19  C   UNL     1     109.502 133.339 146.616  0.00  0.00    +0.000 C 
ENDBRANCH  15  18
BRANCH  17  20
ATOM     20  O   UNL     1     111.404 133.515 148.123  0.00  0.00    +0.000 OA
ATOM     21  C   UNL     1     111.915 133.354 148.750  0.00  0.00    +0.000 C 
ENDBRANCH  17  20
ENDBRANCH   3  12
BRANCH   8  22
ATOM     22  O   UNL     1     112.373 131.212 142.357  0.00  0.00    +0.000 OA
ATOM     23  C   UNL     1     112.897 130.858 141.828  0.00  0.00    +0.000 C 
ENDBRANCH   8  22
BRANCH   9  24
ATOM     24  O   UNL     1     111.290 129.535 144.983  0.00  0.00    +0.000 OA
ATOM     25  C   UNL     1     111.784 128.992 145.359  0.00  0.00    +0.000 C 
ENDBRANCH   9  24
BRANCH  10  26
ATOM     26  O   UNL     1     111.487 128.765 143.538  0.00  0.00    +0.000 OA
ATOM     27  C   UNL     1     111.243 128.454 142.814  0.00  0.00    +0.000 C 
ENDBRANCH  10  26
TORSDOF 6
ENDMDL
