MODEL 1
REMARK VINA RESULT:      -8.2      0.000      0.000
REMARK  Name = 
REMARK  10 active torsions:
REMARK  status: ('A' for Active; 'I' for Inactive)
REMARK    1  A    between atoms: C_1  and  O_20
REMARK    2  A    between atoms: C_3  and  O_19
REMARK    3  A    between atoms: C_4  and  C_7
REMARK    4  A    between atoms: C_5  and  O_17
REMARK    5  A    between atoms: C_7  and  C_8
REMARK    6  A    between atoms: C_8  and  C_9
REMARK    7  A    between atoms: C_9  and  C_10
REMARK    8  A    between atoms: C_13  and  O_18
REMARK    9  A    between atoms: O_18  and  C_24
REMARK   10  A    between atoms: C_26  and  C_27
REMARK                            x       y       z     vdW  Elec       q    Type
REMARK                         _______ _______ _______ _____ _____    ______ ____
ROOT
ATOM      1  C   UNL     1     105.490 127.578 143.806  0.00  0.00    +0.000 A 
ATOM      2  C   UNL     1     105.257 127.903 144.757  0.00  0.00    +0.000 A 
ATOM      3  C   UNL     1     105.300 127.247 145.553  0.00  0.00    +0.000 A 
ATOM      4  C   UNL     1     105.577 126.265 145.396  0.00  0.00    +0.000 A 
ATOM      5  C   UNL     1     105.810 125.940 144.445  0.00  0.00    +0.000 A 
ATOM      6  C   UNL     1     105.766 126.596 143.650  0.00  0.00    +0.000 A 
ENDROOT
BRANCH   1   7
ATOM      7  C   UNL     1     105.446 128.235 143.011  0.00  0.00    +0.000 C 
BRANCH   7   8
ATOM      8  C   UNL     1     104.546 128.662 142.743  0.00  0.00    +0.000 C 
BRANCH   8   9
ATOM      9  C   UNL     1     104.530 129.494 142.134  0.00  0.00    +0.000 C 
ATOM     10  O   UNL     1     105.373 129.759 141.600  0.00  0.00    +0.000 OA
BRANCH   9  14
ATOM     11  C   UNL     1     101.953 131.195 141.903  0.00  0.00    +0.000 A 
ATOM     12  C   UNL     1     102.620 131.371 142.671  0.00  0.00    +0.000 A 
ATOM     13  C   UNL     1     103.479 130.804 142.747  0.00  0.00    +0.000 A 
ATOM     14  C   UNL     1     103.671 130.061 142.057  0.00  0.00    +0.000 A 
ATOM     15  C   UNL     1     103.003 129.885 141.290  0.00  0.00    +0.000 A 
ATOM     16  C   UNL     1     102.144 130.452 141.213  0.00  0.00    +0.000 A 
BRANCH  15  17
ATOM     17  O   UNL     1     103.195 129.142 140.599  0.00  0.00    +0.000 OA
ATOM     18  C   UNL     1     102.638 129.016 139.915  0.00  0.00    +0.000 C 
ENDBRANCH  15  17
BRANCH  13  19
ATOM     19  O   UNL     1     104.147 130.979 143.515  0.00  0.00    +0.000 OA
ATOM     20  C   UNL     1     103.998 131.675 144.106  0.00  0.00    +0.000 C 
ENDBRANCH  13  19
BRANCH  11  21
ATOM     21  O   UNL     1     101.094 131.763 141.827  0.00  0.00    +0.000 OA
ATOM     22  C   UNL     1     101.153 132.785 141.837  0.00  0.00    +0.000 C 
ENDBRANCH  11  21
ENDBRANCH   9  14
ENDBRANCH   8   9
ENDBRANCH   7   8
ENDBRANCH   1   7
BRANCH   4  23
ATOM     23  O   UNL     1     105.620 125.608 146.192  0.00  0.00    +0.000 OA
BRANCH  23  27
ATOM     24  C   UNL     1     107.479 124.452 148.897  0.00  0.00    +0.000 C 
ATOM     25  C   UNL     1     108.012 125.003 148.206  0.00  0.00    +0.000 C 
ATOM     26  C   UNL     1     107.328 125.266 147.480  0.00  0.00    +0.000 C 
ATOM     27  C   UNL     1     107.115 125.747 146.591  0.00  0.00    +0.000 C 
ATOM     28  O   UNL     1     106.582 125.196 147.282  0.00  0.00    +0.000 OA
ATOM     29  C   UNL     1     107.268 124.933 148.008  0.00  0.00    +0.000 C 
ATOM     30  O   UNL     1     108.196 124.444 149.213  0.00  0.00    +0.000 OA
ATOM     31  O   UNL     1     107.950 124.646 148.773  0.00  0.00    +0.000 OA
ATOM     32  O   UNL     1     108.116 125.510 147.407  0.00  0.00    +0.000 OA
BRANCH  29  33
ATOM     33  C   UNL     1     106.725 124.565 148.392  0.00  0.00    +0.000 C 
ATOM     34  O   UNL     1     106.495 124.576 149.045  0.00  0.00    +0.000 OA
ENDBRANCH  29  33
ENDBRANCH  23  27
ENDBRANCH   4  23
TORSDOF 10
ENDMDL
MODEL 2
REMARK VINA RESULT:      -8.2      0.037      1.639
REMARK  Name = 
REMARK  10 active torsions:
REMARK  status: ('A' for Active; 'I' for Inactive)
REMARK    1  A    between atoms: C_1  and  O_20
REMARK    2  A    between atoms: C_3  and  O_19
REMARK    3  A    between atoms: C_4  and  C_7
REMARK    4  A    between atoms: C_5  and  O_17
REMARK    5  A    between atoms: C_7  and  C_8
REMARK    6  A    between atoms: C_8  and  C_9
REMARK    7  A    between atoms: C_9  and  C_10
REMARK    8  A    between atoms: C_13  and  O_18
REMARK    9  A    between atoms: O_18  and  C_24
REMARK   10  A    between atoms: C_26  and  C_27
REMARK                            x       y       z     vdW  Elec       q    Type
REMARK                         _______ _______ _______ _____ _____    ______ ____
ROOT
ATOM      1  C   UNL     1     105.498 127.617 143.815  0.00  0.00    +0.000 A 
ATOM      2  C   UNL     1     105.265 127.935 144.770  0.00  0.00    +0.000 A 
ATOM      3  C   UNL     1     105.304 127.271 145.559  0.00  0.00    +0.000 A 
ATOM      4  C   UNL     1     105.575 126.289 145.394  0.00  0.00    +0.000 A 
ATOM      5  C   UNL     1     105.807 125.971 144.439  0.00  0.00    +0.000 A 
ATOM      6  C   UNL     1     105.768 126.635 143.650  0.00  0.00    +0.000 A 
ENDROOT
BRANCH   1   7
ATOM      7  C   UNL     1     105.459 128.282 143.026  0.00  0.00    +0.000 C 
BRANCH   7   8
ATOM      8  C   UNL     1     104.554 128.684 142.735  0.00  0.00    +0.000 C 
BRANCH   8   9
ATOM      9  C   UNL     1     104.532 129.530 142.145  0.00  0.00    +0.000 C 
ATOM     10  O   UNL     1     105.376 129.819 141.625  0.00  0.00    +0.000 OA
BRANCH   9  14
ATOM     11  C   UNL     1     101.933 131.200 141.929  0.00  0.00    +0.000 A 
ATOM     12  C   UNL     1     102.138 130.471 141.228  0.00  0.00    +0.000 A 
ATOM     13  C   UNL     1     103.004 129.914 141.300  0.00  0.00    +0.000 A 
ATOM     14  C   UNL     1     103.666 130.086 142.073  0.00  0.00    +0.000 A 
ATOM     15  C   UNL     1     103.461 130.815 142.774  0.00  0.00    +0.000 A 
ATOM     16  C   UNL     1     102.595 131.372 142.703  0.00  0.00    +0.000 A 
BRANCH  15  17
ATOM     17  O   UNL     1     104.123 130.987 143.547  0.00  0.00    +0.000 OA
ATOM     18  C   UNL     1     103.950 131.621 144.149  0.00  0.00    +0.000 C 
ENDBRANCH  15  17
BRANCH  13  19
ATOM     19  O   UNL     1     103.208 129.185 140.598  0.00  0.00    +0.000 OA
ATOM     20  C   UNL     1     102.612 129.026 139.910  0.00  0.00    +0.000 C 
ENDBRANCH  13  19
BRANCH  11  21
ATOM     21  O   UNL     1     101.067 131.756 141.858  0.00  0.00    +0.000 OA
ATOM     22  C   UNL     1     101.113 132.779 141.872  0.00  0.00    +0.000 C 
ENDBRANCH  11  21
ENDBRANCH   9  14
ENDBRANCH   8   9
ENDBRANCH   7   8
ENDBRANCH   1   7
BRANCH   4  23
ATOM     23  O   UNL     1     105.614 125.624 146.183  0.00  0.00    +0.000 OA
BRANCH  23  27
ATOM     24  C   UNL     1     107.460 124.435 148.882  0.00  0.00    +0.000 C 
ATOM     25  C   UNL     1     107.997 124.991 148.199  0.00  0.00    +0.000 C 
ATOM     26  C   UNL     1     107.316 125.264 147.473  0.00  0.00    +0.000 C 
ATOM     27  C   UNL     1     107.108 125.755 146.588  0.00  0.00    +0.000 C 
ATOM     28  O   UNL     1     106.570 125.198 147.272  0.00  0.00    +0.000 OA
ATOM     29  C   UNL     1     107.253 124.925 147.998  0.00  0.00    +0.000 C 
ATOM     30  O   UNL     1     108.176 124.421 149.200  0.00  0.00    +0.000 OA
ATOM     31  O   UNL     1     107.931 124.628 148.762  0.00  0.00    +0.000 OA
ATOM     32  O   UNL     1     108.105 125.506 147.406  0.00  0.00    +0.000 OA
BRANCH  29  33
ATOM     33  C   UNL     1     106.708 124.555 148.376  0.00  0.00    +0.000 C 
ATOM     34  O   UNL     1     106.515 124.514 149.040  0.00  0.00    +0.000 OA
ENDBRANCH  29  33
ENDBRANCH  23  27
ENDBRANCH   4  23
TORSDOF 10
ENDMDL
MODEL 3
REMARK VINA RESULT:      -8.1      4.017      8.633
REMARK  Name = 
REMARK  10 active torsions:
REMARK  status: ('A' for Active; 'I' for Inactive)
REMARK    1  A    between atoms: C_1  and  O_20
REMARK    2  A    between atoms: C_3  and  O_19
REMARK    3  A    between atoms: C_4  and  C_7
REMARK    4  A    between atoms: C_5  and  O_17
REMARK    5  A    between atoms: C_7  and  C_8
REMARK    6  A    between atoms: C_8  and  C_9
REMARK    7  A    between atoms: C_9  and  C_10
REMARK    8  A    between atoms: C_13  and  O_18
REMARK    9  A    between atoms: O_18  and  C_24
REMARK   10  A    between atoms: C_26  and  C_27
REMARK                            x       y       z     vdW  Elec       q    Type
REMARK                         _______ _______ _______ _____ _____    ______ ____
ROOT
ATOM      1  C   UNL     1     105.877 125.289 142.221  0.00  0.00    +0.000 A 
ATOM      2  C   UNL     1     105.668 124.279 142.262  0.00  0.00    +0.000 A 
ATOM      3  C   UNL     1     105.482 123.755 141.392  0.00  0.00    +0.000 A 
ATOM      4  C   UNL     1     105.506 124.240 140.482  0.00  0.00    +0.000 A 
ATOM      5  C   UNL     1     105.715 125.251 140.441  0.00  0.00    +0.000 A 
ATOM      6  C   UNL     1     105.900 125.775 141.311  0.00  0.00    +0.000 A 
ENDROOT
BRANCH   1   7
ATOM      7  C   UNL     1     106.062 125.814 143.091  0.00  0.00    +0.000 C 
BRANCH   7   8
ATOM      8  C   UNL     1     105.940 125.354 144.006  0.00  0.00    +0.000 C 
BRANCH   8   9
ATOM      9  C   UNL     1     105.599 125.897 144.815  0.00  0.00    +0.000 C 
ATOM     10  O   UNL     1     105.094 126.784 144.665  0.00  0.00    +0.000 OA
BRANCH   9  14
ATOM     11  C   UNL     1     106.090 124.862 147.692  0.00  0.00    +0.000 A 
ATOM     12  C   UNL     1     105.334 124.455 147.119  0.00  0.00    +0.000 A 
ATOM     13  C   UNL     1     105.170 124.800 146.160  0.00  0.00    +0.000 A 
ATOM     14  C   UNL     1     105.762 125.552 145.774  0.00  0.00    +0.000 A 
ATOM     15  C   UNL     1     106.518 125.959 146.346  0.00  0.00    +0.000 A 
ATOM     16  C   UNL     1     106.682 125.614 147.305  0.00  0.00    +0.000 A 
BRANCH  15  17
ATOM     17  O   UNL     1     107.111 126.711 145.960  0.00  0.00    +0.000 OA
ATOM     18  C   UNL     1     107.545 127.262 146.509  0.00  0.00    +0.000 C 
ENDBRANCH  15  17
BRANCH  13  19
ATOM     19  O   UNL     1     104.414 124.393 145.587  0.00  0.00    +0.000 OA
ATOM     20  C   UNL     1     103.865 123.740 145.944  0.00  0.00    +0.000 C 
ENDBRANCH  13  19
BRANCH  11  21
ATOM     21  O   UNL     1     106.253 124.517 148.651  0.00  0.00    +0.000 OA
ATOM     22  C   UNL     1     107.208 124.448 149.014  0.00  0.00    +0.000 C 
ENDBRANCH  11  21
ENDBRANCH   9  14
ENDBRANCH   8   9
ENDBRANCH   7   8
ENDBRANCH   1   7
BRANCH   4  23
ATOM     23  O   UNL     1     105.320 123.716 139.613  0.00  0.00    +0.000 OA
BRANCH  23  27
ATOM     24  C   UNL     1     103.043 123.308 137.013  0.00  0.00    +0.000 C 
ATOM     25  C   UNL     1     102.627 123.581 137.917  0.00  0.00    +0.000 C 
ATOM     26  C   UNL     1     103.422 123.660 138.571  0.00  0.00    +0.000 C 
ATOM     27  C   UNL     1     103.776 123.861 139.520  0.00  0.00    +0.000 C 
ATOM     28  O   UNL     1     104.192 123.587 138.615  0.00  0.00    +0.000 OA
ATOM     29  C   UNL     1     103.396 123.509 137.962  0.00  0.00    +0.000 C 
ATOM     30  O   UNL     1     102.282 123.344 136.829  0.00  0.00    +0.000 OA
ATOM     31  O   UNL     1     102.597 123.419 137.264  0.00  0.00    +0.000 OA
ATOM     32  O   UNL     1     102.653 123.811 138.840  0.00  0.00    +0.000 OA
BRANCH  29  33
ATOM     33  C   UNL     1     103.871 123.315 137.401  0.00  0.00    +0.000 C 
ATOM     34  O   UNL     1     103.794 123.063 136.760  0.00  0.00    +0.000 OA
ENDBRANCH  29  33
ENDBRANCH  23  27
ENDBRANCH   4  23
TORSDOF 10
ENDMDL
MODEL 4
REMARK VINA RESULT:      -8.1      4.027      8.548
REMARK  Name = 
REMARK  10 active torsions:
REMARK  status: ('A' for Active; 'I' for Inactive)
REMARK    1  A    between atoms: C_1  and  O_20
REMARK    2  A    between atoms: C_3  and  O_19
REMARK    3  A    between atoms: C_4  and  C_7
REMARK    4  A    between atoms: C_5  and  O_17
REMARK    5  A    between atoms: C_7  and  C_8
REMARK    6  A    between atoms: C_8  and  C_9
REMARK    7  A    between atoms: C_9  and  C_10
REMARK    8  A    between atoms: C_13  and  O_18
REMARK    9  A    between atoms: O_18  and  C_24
REMARK   10  A    between atoms: C_26  and  C_27
REMARK                            x       y       z     vdW  Elec       q    Type
REMARK                         _______ _______ _______ _____ _____    ______ ____
ROOT
ATOM      1  C   UNL     1     105.881 125.281 142.202  0.00  0.00    +0.000 A 
ATOM      2  C   UNL     1     105.657 124.274 142.240  0.00  0.00    +0.000 A 
ATOM      3  C   UNL     1     105.474 123.752 141.369  0.00  0.00    +0.000 A 
ATOM      4  C   UNL     1     105.516 124.237 140.459  0.00  0.00    +0.000 A 
ATOM      5  C   UNL     1     105.740 125.244 140.420  0.00  0.00    +0.000 A 
ATOM      6  C   UNL     1     105.923 125.766 141.292  0.00  0.00    +0.000 A 
ENDROOT
BRANCH   1   7
ATOM      7  C   UNL     1     106.063 125.803 143.074  0.00  0.00    +0.000 C 
BRANCH   7   8
ATOM      8  C   UNL     1     105.928 125.343 143.988  0.00  0.00    +0.000 C 
BRANCH   8   9
ATOM      9  C   UNL     1     105.582 125.887 144.793  0.00  0.00    +0.000 C 
ATOM     10  O   UNL     1     105.079 126.775 144.638  0.00  0.00    +0.000 OA
BRANCH   9  14
ATOM     11  C   UNL     1     106.050 124.856 147.675  0.00  0.00    +0.000 A 
ATOM     12  C   UNL     1     106.657 125.594 147.286  0.00  0.00    +0.000 A 
ATOM     13  C   UNL     1     106.501 125.938 146.325  0.00  0.00    +0.000 A 
ATOM     14  C   UNL     1     105.738 125.543 145.753  0.00  0.00    +0.000 A 
ATOM     15  C   UNL     1     105.130 124.805 146.142  0.00  0.00    +0.000 A 
ATOM     16  C   UNL     1     105.286 124.462 147.103  0.00  0.00    +0.000 A 
BRANCH  15  17
ATOM     17  O   UNL     1     104.367 124.411 145.570  0.00  0.00    +0.000 OA
ATOM     18  C   UNL     1     103.871 123.743 145.889  0.00  0.00    +0.000 C 
ENDBRANCH  15  17
BRANCH  13  19
ATOM     19  O   UNL     1     107.108 126.676 145.937  0.00  0.00    +0.000 OA
ATOM     20  C   UNL     1     107.631 127.190 146.501  0.00  0.00    +0.000 C 
ENDBRANCH  13  19
BRANCH  11  21
ATOM     21  O   UNL     1     106.206 124.512 148.636  0.00  0.00    +0.000 OA
ATOM     22  C   UNL     1     107.160 124.367 148.979  0.00  0.00    +0.000 C 
ENDBRANCH  11  21
ENDBRANCH   9  14
ENDBRANCH   8   9
ENDBRANCH   7   8
ENDBRANCH   1   7
BRANCH   4  23
ATOM     23  O   UNL     1     105.334 123.715 139.587  0.00  0.00    +0.000 OA
BRANCH  23  27
ATOM     24  C   UNL     1     103.096 123.232 136.966  0.00  0.00    +0.000 C 
ATOM     25  C   UNL     1     102.675 123.592 137.837  0.00  0.00    +0.000 C 
ATOM     26  C   UNL     1     103.459 123.678 138.503  0.00  0.00    +0.000 C 
ATOM     27  C   UNL     1     103.802 123.931 139.444  0.00  0.00    +0.000 C 
ATOM     28  O   UNL     1     104.223 123.570 138.573  0.00  0.00    +0.000 OA
ATOM     29  C   UNL     1     103.438 123.485 137.907  0.00  0.00    +0.000 C 
ATOM     30  O   UNL     1     102.342 123.293 136.760  0.00  0.00    +0.000 OA
ATOM     31  O   UNL     1     102.651 123.385 137.197  0.00  0.00    +0.000 OA
ATOM     32  O   UNL     1     102.693 123.888 138.741  0.00  0.00    +0.000 OA
BRANCH  29  33
ATOM     33  C   UNL     1     103.914 123.227 137.374  0.00  0.00    +0.000 C 
ATOM     34  O   UNL     1     104.023 123.370 136.704  0.00  0.00    +0.000 OA
ENDBRANCH  29  33
ENDBRANCH  23  27
ENDBRANCH   4  23
TORSDOF 10
ENDMDL
MODEL 5
REMARK VINA RESULT:      -7.7      4.624      8.064
REMARK  Name = 
REMARK  10 active torsions:
REMARK  status: ('A' for Active; 'I' for Inactive)
REMARK    1  A    between atoms: C_1  and  O_20
REMARK    2  A    between atoms: C_3  and  O_19
REMARK    3  A    between atoms: C_4  and  C_7
REMARK    4  A    between atoms: C_5  and  O_17
REMARK    5  A    between atoms: C_7  and  C_8
REMARK    6  A    between atoms: C_8  and  C_9
REMARK    7  A    between atoms: C_9  and  C_10
REMARK    8  A    between atoms: C_13  and  O_18
REMARK    9  A    between atoms: O_18  and  C_24
REMARK   10  A    between atoms: C_26  and  C_27
REMARK                            x       y       z     vdW  Elec       q    Type
REMARK                         _______ _______ _______ _____ _____    ______ ____
ROOT
ATOM      1  C   UNL     1     105.774 124.707 141.594  0.00  0.00    +0.000 A 
ATOM      2  C   UNL     1     105.264 123.810 141.633  0.00  0.00    +0.000 A 
ATOM      3  C   UNL     1     105.053 123.298 140.762  0.00  0.00    +0.000 A 
ATOM      4  C   UNL     1     105.353 123.682 139.852  0.00  0.00    +0.000 A 
ATOM      5  C   UNL     1     105.863 124.578 139.813  0.00  0.00    +0.000 A 
ATOM      6  C   UNL     1     106.074 125.091 140.684  0.00  0.00    +0.000 A 
ENDROOT
BRANCH   1   7
ATOM      7  C   UNL     1     105.985 125.219 142.465  0.00  0.00    +0.000 C 
BRANCH   7   8
ATOM      8  C   UNL     1     106.164 126.235 142.435  0.00  0.00    +0.000 C 
BRANCH   8   9
ATOM      9  C   UNL     1     106.673 126.692 143.207  0.00  0.00    +0.000 C 
ATOM     10  O   UNL     1     106.921 126.154 144.052  0.00  0.00    +0.000 OA
BRANCH   9  14
ATOM     11  C   UNL     1     107.459 129.679 142.987  0.00  0.00    +0.000 A 
ATOM     12  C   UNL     1     106.572 129.411 143.441  0.00  0.00    +0.000 A 
ATOM     13  C   UNL     1     106.310 128.416 143.515  0.00  0.00    +0.000 A 
ATOM     14  C   UNL     1     106.935 127.688 143.133  0.00  0.00    +0.000 A 
ATOM     15  C   UNL     1     107.822 127.956 142.679  0.00  0.00    +0.000 A 
ATOM     16  C   UNL     1     108.084 128.952 142.606  0.00  0.00    +0.000 A 
BRANCH  15  17
ATOM     17  O   UNL     1     108.447 127.228 142.298  0.00  0.00    +0.000 OA
ATOM     18  C   UNL     1     109.167 127.461 141.828  0.00  0.00    +0.000 C 
ENDBRANCH  15  17
BRANCH  13  19
ATOM     19  O   UNL     1     105.423 128.148 143.969  0.00  0.00    +0.000 OA
ATOM     20  C   UNL     1     104.917 128.786 144.407  0.00  0.00    +0.000 C 
ENDBRANCH  13  19
BRANCH  11  21
ATOM     21  O   UNL     1     107.721 130.675 142.914  0.00  0.00    +0.000 OA
ATOM     22  C   UNL     1     107.004 131.401 143.002  0.00  0.00    +0.000 C 
ENDBRANCH  11  21
ENDBRANCH   9  14
ENDBRANCH   8   9
ENDBRANCH   7   8
ENDBRANCH   1   7
BRANCH   4  23
ATOM     23  O   UNL     1     105.143 123.169 138.981  0.00  0.00    +0.000 OA
BRANCH  23  27
ATOM     24  C   UNL     1     103.069 123.073 136.189  0.00  0.00    +0.000 C 
ATOM     25  C   UNL     1     102.646 123.494 137.030  0.00  0.00    +0.000 C 
ATOM     26  C   UNL     1     103.379 123.447 137.756  0.00  0.00    +0.000 C 
ATOM     27  C   UNL     1     103.683 123.635 138.725  0.00  0.00    +0.000 C 
ATOM     28  O   UNL     1     104.106 123.214 137.882  0.00  0.00    +0.000 OA
ATOM     29  C   UNL     1     103.373 123.262 137.156  0.00  0.00    +0.000 C 
ATOM     30  O   UNL     1     102.355 123.259 135.926  0.00  0.00    +0.000 OA
ATOM     31  O   UNL     1     102.639 123.296 136.387  0.00  0.00    +0.000 OA
ATOM     32  O   UNL     1     102.642 123.779 137.938  0.00  0.00    +0.000 OA
BRANCH  29  33
ATOM     33  C   UNL     1     103.841 122.931 136.657  0.00  0.00    +0.000 C 
ATOM     34  O   UNL     1     104.032 123.063 136.005  0.00  0.00    +0.000 OA
ENDBRANCH  29  33
ENDBRANCH  23  27
ENDBRANCH   4  23
TORSDOF 10
ENDMDL
MODEL 6
REMARK VINA RESULT:      -7.7      1.693      2.964
REMARK  Name = 
REMARK  10 active torsions:
REMARK  status: ('A' for Active; 'I' for Inactive)
REMARK    1  A    between atoms: C_1  and  O_20
REMARK    2  A    between atoms: C_3  and  O_19
REMARK    3  A    between atoms: C_4  and  C_7
REMARK    4  A    between atoms: C_5  and  O_17
REMARK    5  A    between atoms: C_7  and  C_8
REMARK    6  A    between atoms: C_8  and  C_9
REMARK    7  A    between atoms: C_9  and  C_10
REMARK    8  A    between atoms: C_13  and  O_18
REMARK    9  A    between atoms: O_18  and  C_24
REMARK   10  A    between atoms: C_26  and  C_27
REMARK                            x       y       z     vdW  Elec       q    Type
REMARK                         _______ _______ _______ _____ _____    ______ ____
ROOT
ATOM      1  C   UNL     1     104.326 128.807 142.096  0.00  0.00    +0.000 A 
ATOM      2  C   UNL     1     104.460 129.111 143.074  0.00  0.00    +0.000 A 
ATOM      3  C   UNL     1     105.103 128.593 143.693  0.00  0.00    +0.000 A 
ATOM      4  C   UNL     1     105.614 127.771 143.334  0.00  0.00    +0.000 A 
ATOM      5  C   UNL     1     105.480 127.466 142.357  0.00  0.00    +0.000 A 
ATOM      6  C   UNL     1     104.837 127.984 141.738  0.00  0.00    +0.000 A 
ENDROOT
BRANCH   1   7
ATOM      7  C   UNL     1     103.683 129.324 141.477  0.00  0.00    +0.000 C 
BRANCH   7   8
ATOM      8  C   UNL     1     103.587 130.348 141.572  0.00  0.00    +0.000 C 
BRANCH   8   9
ATOM      9  C   UNL     1     103.009 130.876 140.901  0.00  0.00    +0.000 C 
ATOM     10  O   UNL     1     102.593 130.396 140.088  0.00  0.00    +0.000 OA
BRANCH   9  14
ATOM     11  C   UNL     1     102.523 133.905 141.328  0.00  0.00    +0.000 A 
ATOM     12  C   UNL     1     103.333 133.585 140.773  0.00  0.00    +0.000 A 
ATOM     13  C   UNL     1     103.495 132.576 140.631  0.00  0.00    +0.000 A 
ATOM     14  C   UNL     1     102.847 131.886 141.044  0.00  0.00    +0.000 A 
ATOM     15  C   UNL     1     102.038 132.205 141.598  0.00  0.00    +0.000 A 
ATOM     16  C   UNL     1     101.876 133.215 141.740  0.00  0.00    +0.000 A 
BRANCH  15  17
ATOM     17  O   UNL     1     101.390 131.515 142.011  0.00  0.00    +0.000 OA
ATOM     18  C   UNL     1     100.711 131.789 142.518  0.00  0.00    +0.000 C 
ENDBRANCH  15  17
BRANCH  13  19
ATOM     19  O   UNL     1     104.304 132.256 140.076  0.00  0.00    +0.000 OA
ATOM     20  C   UNL     1     104.788 132.863 139.574  0.00  0.00    +0.000 C 
ENDBRANCH  13  19
BRANCH  11  21
ATOM     21  O   UNL     1     102.361 134.914 141.470  0.00  0.00    +0.000 OA
ATOM     22  C   UNL     1     102.208 135.527 140.664  0.00  0.00    +0.000 C 
ENDBRANCH  11  21
ENDBRANCH   9  14
ENDBRANCH   8   9
ENDBRANCH   7   8
ENDBRANCH   1   7
BRANCH   4  23
ATOM     23  O   UNL     1     106.257 127.253 143.953  0.00  0.00    +0.000 OA
BRANCH  23  27
ATOM     24  C   UNL     1     106.393 124.989 146.592  0.00  0.00    +0.000 C 
ATOM     25  C   UNL     1     105.586 124.873 145.960  0.00  0.00    +0.000 C 
ATOM     26  C   UNL     1     105.692 125.609 145.244  0.00  0.00    +0.000 C 
ATOM     27  C   UNL     1     105.341 126.078 144.394  0.00  0.00    +0.000 C 
ATOM     28  O   UNL     1     106.149 126.194 145.026  0.00  0.00    +0.000 OA
ATOM     29  C   UNL     1     106.043 125.458 145.742  0.00  0.00    +0.000 C 
ATOM     30  O   UNL     1     106.026 124.380 146.921  0.00  0.00    +0.000 OA
ATOM     31  O   UNL     1     105.961 124.709 146.495  0.00  0.00    +0.000 OA
ATOM     32  O   UNL     1     105.045 125.092 145.208  0.00  0.00    +0.000 OA
BRANCH  29  33
ATOM     33  C   UNL     1     106.680 125.691 146.083  0.00  0.00    +0.000 C 
ATOM     34  O   UNL     1     107.274 125.388 146.270  0.00  0.00    +0.000 OA
ENDBRANCH  29  33
ENDBRANCH  23  27
ENDBRANCH   4  23
TORSDOF 10
ENDMDL
MODEL 7
REMARK VINA RESULT:      -7.6      6.207      8.899
REMARK  Name = 
REMARK  10 active torsions:
REMARK  status: ('A' for Active; 'I' for Inactive)
REMARK    1  A    between atoms: C_1  and  O_20
REMARK    2  A    between atoms: C_3  and  O_19
REMARK    3  A    between atoms: C_4  and  C_7
REMARK    4  A    between atoms: C_5  and  O_17
REMARK    5  A    between atoms: C_7  and  C_8
REMARK    6  A    between atoms: C_8  and  C_9
REMARK    7  A    between atoms: C_9  and  C_10
REMARK    8  A    between atoms: C_13  and  O_18
REMARK    9  A    between atoms: O_18  and  C_24
REMARK   10  A    between atoms: C_26  and  C_27
REMARK                            x       y       z     vdW  Elec       q    Type
REMARK                         _______ _______ _______ _____ _____    ______ ____
ROOT
ATOM      1  C   UNL     1     107.250 124.888 140.990  0.00  0.00    +0.000 A 
ATOM      2  C   UNL     1     107.125 123.872 140.862  0.00  0.00    +0.000 A 
ATOM      3  C   UNL     1     106.197 123.494 140.611  0.00  0.00    +0.000 A 
ATOM      4  C   UNL     1     105.396 124.132 140.489  0.00  0.00    +0.000 A 
ATOM      5  C   UNL     1     105.522 125.149 140.617  0.00  0.00    +0.000 A 
ATOM      6  C   UNL     1     106.449 125.527 140.868  0.00  0.00    +0.000 A 
ENDROOT
BRANCH   1   7
ATOM      7  C   UNL     1     108.178 125.267 141.241  0.00  0.00    +0.000 C 
BRANCH   7   8
ATOM      8  C   UNL     1     108.729 125.787 140.541  0.00  0.00    +0.000 C 
BRANCH   8   9
ATOM      9  C   UNL     1     109.690 126.090 140.762  0.00  0.00    +0.000 C 
ATOM     10  O   UNL     1     110.188 125.680 141.567  0.00  0.00    +0.000 OA
BRANCH   9  14
ATOM     11  C   UNL     1     111.080 128.230 139.008  0.00  0.00    +0.000 A 
ATOM     12  C   UNL     1     110.544 128.516 139.843  0.00  0.00    +0.000 A 
ATOM     13  C   UNL     1     110.081 127.802 140.427  0.00  0.00    +0.000 A 
ATOM     14  C   UNL     1     110.153 126.803 140.177  0.00  0.00    +0.000 A 
ATOM     15  C   UNL     1     110.689 126.518 139.343  0.00  0.00    +0.000 A 
ATOM     16  C   UNL     1     111.152 127.231 138.758  0.00  0.00    +0.000 A 
BRANCH  15  17
ATOM     17  O   UNL     1     110.761 125.519 139.093  0.00  0.00    +0.000 OA
ATOM     18  C   UNL     1     111.132 125.279 138.319  0.00  0.00    +0.000 C 
ENDBRANCH  15  17
BRANCH  13  19
ATOM     19  O   UNL     1     109.545 128.088 141.262  0.00  0.00    +0.000 OA
ATOM     20  C   UNL     1     109.506 128.980 141.503  0.00  0.00    +0.000 C 
ENDBRANCH  13  19
BRANCH  11  21
ATOM     21  O   UNL     1     111.544 128.943 138.423  0.00  0.00    +0.000 OA
ATOM     22  C   UNL     1     111.206 129.126 137.474  0.00  0.00    +0.000 C 
ENDBRANCH  11  21
ENDBRANCH   9  14
ENDBRANCH   8   9
ENDBRANCH   7   8
ENDBRANCH   1   7
BRANCH   4  23
ATOM     23  O   UNL     1     104.469 123.754 140.238  0.00  0.00    +0.000 OA
BRANCH  23  27
ATOM     24  C   UNL     1     102.227 123.498 137.589  0.00  0.00    +0.000 C 
ATOM     25  C   UNL     1     103.222 123.429 137.325  0.00  0.00    +0.000 C 
ATOM     26  C   UNL     1     103.746 123.523 138.210  0.00  0.00    +0.000 C 
ATOM     27  C   UNL     1     104.650 123.554 138.708  0.00  0.00    +0.000 C 
ATOM     28  O   UNL     1     103.654 123.623 138.972  0.00  0.00    +0.000 OA
ATOM     29  C   UNL     1     103.130 123.529 138.087  0.00  0.00    +0.000 C 
ATOM     30  O   UNL     1     102.175 123.401 136.814  0.00  0.00    +0.000 OA
ATOM     31  O   UNL     1     102.562 123.435 137.192  0.00  0.00    +0.000 OA
ATOM     32  O   UNL     1     104.157 123.418 137.498  0.00  0.00    +0.000 OA
BRANCH  29  33
ATOM     33  C   UNL     1     102.474 123.600 138.463  0.00  0.00    +0.000 C 
ATOM     34  O   UNL     1     101.867 123.907 138.334  0.00  0.00    +0.000 OA
ENDBRANCH  29  33
ENDBRANCH  23  27
ENDBRANCH   4  23
TORSDOF 10
ENDMDL
MODEL 8
REMARK VINA RESULT:      -7.6      6.339      9.009
REMARK  Name = 
REMARK  10 active torsions:
REMARK  status: ('A' for Active; 'I' for Inactive)
REMARK    1  A    between atoms: C_1  and  O_20
REMARK    2  A    between atoms: C_3  and  O_19
REMARK    3  A    between atoms: C_4  and  C_7
REMARK    4  A    between atoms: C_5  and  O_17
REMARK    5  A    between atoms: C_7  and  C_8
REMARK    6  A    between atoms: C_8  and  C_9
REMARK    7  A    between atoms: C_9  and  C_10
REMARK    8  A    between atoms: C_13  and  O_18
REMARK    9  A    between atoms: O_18  and  C_24
REMARK   10  A    between atoms: C_26  and  C_27
REMARK                            x       y       z     vdW  Elec       q    Type
REMARK                         _______ _______ _______ _____ _____    ______ ____
ROOT
ATOM      1  C   UNL     1     107.472 124.965 140.957  0.00  0.00    +0.000 A 
ATOM      2  C   UNL     1     107.347 123.943 140.884  0.00  0.00    +0.000 A 
ATOM      3  C   UNL     1     106.410 123.549 140.706  0.00  0.00    +0.000 A 
ATOM      4  C   UNL     1     105.598 124.177 140.601  0.00  0.00    +0.000 A 
ATOM      5  C   UNL     1     105.723 125.199 140.674  0.00  0.00    +0.000 A 
ATOM      6  C   UNL     1     106.660 125.593 140.852  0.00  0.00    +0.000 A 
ENDROOT
BRANCH   1   7
ATOM      7  C   UNL     1     108.409 125.359 141.136  0.00  0.00    +0.000 C 
BRANCH   7   8
ATOM      8  C   UNL     1     108.930 125.817 140.372  0.00  0.00    +0.000 C 
BRANCH   8   9
ATOM      9  C   UNL     1     109.905 126.120 140.521  0.00  0.00    +0.000 C 
ATOM     10  O   UNL     1     110.430 125.784 141.343  0.00  0.00    +0.000 OA
BRANCH   9  14
ATOM     11  C   UNL     1     111.257 128.038 138.500  0.00  0.00    +0.000 A 
ATOM     12  C   UNL     1     111.293 127.018 138.347  0.00  0.00    +0.000 A 
ATOM     13  C   UNL     1     110.842 126.379 139.020  0.00  0.00    +0.000 A 
ATOM     14  C   UNL     1     110.356 126.759 139.847  0.00  0.00    +0.000 A 
ATOM     15  C   UNL     1     110.319 127.779 140.001  0.00  0.00    +0.000 A 
ATOM     16  C   UNL     1     110.770 128.419 139.327  0.00  0.00    +0.000 A 
BRANCH  15  17
ATOM     17  O   UNL     1     109.832 128.160 140.827  0.00  0.00    +0.000 OA
ATOM     18  C   UNL     1     109.581 129.014 140.842  0.00  0.00    +0.000 C 
ENDBRANCH  15  17
BRANCH  13  19
ATOM     19  O   UNL     1     110.879 125.359 138.867  0.00  0.00    +0.000 OA
ATOM     20  C   UNL     1     111.299 125.019 138.117  0.00  0.00    +0.000 C 
ENDBRANCH  13  19
BRANCH  11  21
ATOM     21  O   UNL     1     111.707 128.677 137.827  0.00  0.00    +0.000 OA
ATOM     22  C   UNL     1     111.190 129.003 137.005  0.00  0.00    +0.000 C 
ENDBRANCH  11  21
ENDBRANCH   9  14
ENDBRANCH   8   9
ENDBRANCH   7   8
ENDBRANCH   1   7
BRANCH   4  23
ATOM     23  O   UNL     1     104.661 123.783 140.422  0.00  0.00    +0.000 OA
BRANCH  23  27
ATOM     24  C   UNL     1     102.181 123.571 137.990  0.00  0.00    +0.000 C 
ATOM     25  C   UNL     1     103.147 123.545 137.629  0.00  0.00    +0.000 C 
ATOM     26  C   UNL     1     103.752 123.616 138.463  0.00  0.00    +0.000 C 
ATOM     27  C   UNL     1     104.699 123.654 138.875  0.00  0.00    +0.000 C 
ATOM     28  O   UNL     1     103.731 123.681 139.235  0.00  0.00    +0.000 OA
ATOM     29  C   UNL     1     103.127 123.609 138.400  0.00  0.00    +0.000 C 
ATOM     30  O   UNL     1     102.057 123.506 137.219  0.00  0.00    +0.000 OA
ATOM     31  O   UNL     1     102.478 123.536 137.560  0.00  0.00    +0.000 OA
ATOM     32  O   UNL     1     104.096 123.555 137.712  0.00  0.00    +0.000 OA
BRANCH  29  33
ATOM     33  C   UNL     1     102.509 123.643 138.840  0.00  0.00    +0.000 C 
ATOM     34  O   UNL     1     101.943 123.251 138.921  0.00  0.00    +0.000 OA
ENDBRANCH  29  33
ENDBRANCH  23  27
ENDBRANCH   4  23
TORSDOF 10
ENDMDL
MODEL 9
REMARK VINA RESULT:      -7.6      4.135      7.849
REMARK  Name = 
REMARK  10 active torsions:
REMARK  status: ('A' for Active; 'I' for Inactive)
REMARK    1  A    between atoms: C_1  and  O_20
REMARK    2  A    between atoms: C_3  and  O_19
REMARK    3  A    between atoms: C_4  and  C_7
REMARK    4  A    between atoms: C_5  and  O_17
REMARK    5  A    between atoms: C_7  and  C_8
REMARK    6  A    between atoms: C_8  and  C_9
REMARK    7  A    between atoms: C_9  and  C_10
REMARK    8  A    between atoms: C_13  and  O_18
REMARK    9  A    between atoms: O_18  and  C_24
REMARK   10  A    between atoms: C_26  and  C_27
REMARK                            x       y       z     vdW  Elec       q    Type
REMARK                         _______ _______ _______ _____ _____    ______ ____
ROOT
ATOM      1  C   UNL     1     106.376 125.214 141.627  0.00  0.00    +0.000 A 
ATOM      2  C   UNL     1     105.789 124.438 141.971  0.00  0.00    +0.000 A 
ATOM      3  C   UNL     1     105.390 123.758 141.305  0.00  0.00    +0.000 A 
ATOM      4  C   UNL     1     105.577 123.854 140.295  0.00  0.00    +0.000 A 
ATOM      5  C   UNL     1     106.164 124.631 139.951  0.00  0.00    +0.000 A 
ATOM      6  C   UNL     1     106.563 125.311 140.617  0.00  0.00    +0.000 A 
ENDROOT
BRANCH   1   7
ATOM      7  C   UNL     1     106.775 125.894 142.293  0.00  0.00    +0.000 C 
BRANCH   7   8
ATOM      8  C   UNL     1     106.260 126.137 143.154  0.00  0.00    +0.000 C 
BRANCH   8   9
ATOM      9  C   UNL     1     106.678 126.784 143.840  0.00  0.00    +0.000 C 
ATOM     10  O   UNL     1     107.637 127.137 143.699  0.00  0.00    +0.000 OA
BRANCH   9  14
ATOM     11  C   UNL     1     105.053 127.665 146.325  0.00  0.00    +0.000 A 
ATOM     12  C   UNL     1     105.010 128.220 145.456  0.00  0.00    +0.000 A 
ATOM     13  C   UNL     1     105.551 127.927 144.628  0.00  0.00    +0.000 A 
ATOM     14  C   UNL     1     106.136 127.077 144.668  0.00  0.00    +0.000 A 
ATOM     15  C   UNL     1     106.180 126.521 145.537  0.00  0.00    +0.000 A 
ATOM     16  C   UNL     1     105.638 126.815 146.365  0.00  0.00    +0.000 A 
BRANCH  15  17
ATOM     17  O   UNL     1     106.765 125.672 145.577  0.00  0.00    +0.000 OA
ATOM     18  C   UNL     1     106.753 125.157 146.304  0.00  0.00    +0.000 C 
ENDBRANCH  15  17
BRANCH  13  19
ATOM     19  O   UNL     1     105.508 128.483 143.760  0.00  0.00    +0.000 OA
ATOM     20  C   UNL     1     104.889 129.165 143.678  0.00  0.00    +0.000 C 
ENDBRANCH  13  19
BRANCH  11  21
ATOM     21  O   UNL     1     104.512 127.958 147.153  0.00  0.00    +0.000 OA
ATOM     22  C   UNL     1     104.781 128.801 147.669  0.00  0.00    +0.000 C 
ENDBRANCH  11  21
ENDBRANCH   9  14
ENDBRANCH   8   9
ENDBRANCH   7   8
ENDBRANCH   1   7
BRANCH   4  23
ATOM     23  O   UNL     1     105.177 123.174 139.629  0.00  0.00    +0.000 OA
BRANCH  23  27
ATOM     24  C   UNL     1     102.914 123.329 136.991  0.00  0.00    +0.000 C 
ATOM     25  C   UNL     1     102.571 123.722 137.881  0.00  0.00    +0.000 C 
ATOM     26  C   UNL     1     103.349 123.600 138.550  0.00  0.00    +0.000 C 
ATOM     27  C   UNL     1     103.729 123.721 139.503  0.00  0.00    +0.000 C 
ATOM     28  O   UNL     1     104.071 123.327 138.611  0.00  0.00    +0.000 OA
ATOM     29  C   UNL     1     103.293 123.449 137.943  0.00  0.00    +0.000 C 
ATOM     30  O   UNL     1     102.193 123.561 136.791  0.00  0.00    +0.000 OA
ATOM     31  O   UNL     1     102.510 123.560 137.231  0.00  0.00    +0.000 OA
ATOM     32  O   UNL     1     102.644 123.956 138.801  0.00  0.00    +0.000 OA
BRANCH  29  33
ATOM     33  C   UNL     1     103.708 123.125 137.396  0.00  0.00    +0.000 C 
ATOM     34  O   UNL     1     104.024 123.352 136.823  0.00  0.00    +0.000 OA
ENDBRANCH  29  33
ENDBRANCH  23  27
ENDBRANCH   4  23
TORSDOF 10
ENDMDL
MODEL 10
REMARK VINA RESULT:      -7.6      1.626      8.541
REMARK  Name = 
REMARK  10 active torsions:
REMARK  status: ('A' for Active; 'I' for Inactive)
REMARK    1  A    between atoms: C_1  and  O_20
REMARK    2  A    between atoms: C_3  and  O_19
REMARK    3  A    between atoms: C_4  and  C_7
REMARK    4  A    between atoms: C_5  and  O_17
REMARK    5  A    between atoms: C_7  and  C_8
REMARK    6  A    between atoms: C_8  and  C_9
REMARK    7  A    between atoms: C_9  and  C_10
REMARK    8  A    between atoms: C_13  and  O_18
REMARK    9  A    between atoms: O_18  and  C_24
REMARK   10  A    between atoms: C_26  and  C_27
REMARK                            x       y       z     vdW  Elec       q    Type
REMARK                         _______ _______ _______ _____ _____    ______ ____
ROOT
ATOM      1  C   UNL     1     104.799 128.502 142.634  0.00  0.00    +0.000 A 
ATOM      2  C   UNL     1     104.470 129.203 143.317  0.00  0.00    +0.000 A 
ATOM      3  C   UNL     1     103.705 129.849 143.065  0.00  0.00    +0.000 A 
ATOM      4  C   UNL     1     103.270 129.794 142.131  0.00  0.00    +0.000 A 
ATOM      5  C   UNL     1     103.599 129.093 141.449  0.00  0.00    +0.000 A 
ATOM      6  C   UNL     1     104.364 128.447 141.700  0.00  0.00    +0.000 A 
ENDROOT
BRANCH   1   7
ATOM      7  C   UNL     1     105.564 127.856 142.886  0.00  0.00    +0.000 C 
BRANCH   7   8
ATOM      8  C   UNL     1     105.498 127.289 143.746  0.00  0.00    +0.000 C 
BRANCH   8   9
ATOM      9  C   UNL     1     106.302 126.718 144.051  0.00  0.00    +0.000 C 
ATOM     10  O   UNL     1     107.091 126.554 143.407  0.00  0.00    +0.000 OA
BRANCH   9  14
ATOM     11  C   UNL     1     106.343 125.500 146.897  0.00  0.00    +0.000 A 
ATOM     12  C   UNL     1     105.881 124.993 146.126  0.00  0.00    +0.000 A 
ATOM     13  C   UNL     1     105.867 125.400 145.177  0.00  0.00    +0.000 A 
ATOM     14  C   UNL     1     106.316 126.312 144.999  0.00  0.00    +0.000 A 
ATOM     15  C   UNL     1     106.778 126.819 145.771  0.00  0.00    +0.000 A 
ATOM     16  C   UNL     1     106.792 126.412 146.719  0.00  0.00    +0.000 A 
BRANCH  15  17
ATOM     17  O   UNL     1     107.226 127.731 145.593  0.00  0.00    +0.000 OA
ATOM     18  C   UNL     1     107.512 128.228 146.276  0.00  0.00    +0.000 C 
ENDBRANCH  15  17
BRANCH  13  19
ATOM     19  O   UNL     1     105.405 124.893 144.406  0.00  0.00    +0.000 OA
ATOM     20  C   UNL     1     105.085 124.036 144.542  0.00  0.00    +0.000 C 
ENDBRANCH  13  19
BRANCH  11  21
ATOM     21  O   UNL     1     106.357 125.094 147.846  0.00  0.00    +0.000 OA
ATOM     22  C   UNL     1     107.251 124.928 148.319  0.00  0.00    +0.000 C 
ENDBRANCH  11  21
ENDBRANCH   9  14
ENDBRANCH   8   9
ENDBRANCH   7   8
ENDBRANCH   1   7
BRANCH   4  23
ATOM     23  O   UNL     1     102.505 130.440 141.879  0.00  0.00    +0.000 OA
BRANCH  23  27
ATOM     24  C   UNL     1     101.929 133.853 141.517  0.00  0.00    +0.000 C 
ATOM     25  C   UNL     1     102.813 133.515 141.108  0.00  0.00    +0.000 C 
ATOM     26  C   UNL     1     102.832 132.501 141.298  0.00  0.00    +0.000 C 
ATOM     27  C   UNL     1     103.314 131.590 141.218  0.00  0.00    +0.000 C 
ATOM     28  O   UNL     1     102.428 131.929 141.628  0.00  0.00    +0.000 OA
ATOM     29  C   UNL     1     102.410 132.943 141.438  0.00  0.00    +0.000 C 
ATOM     30  O   UNL     1     102.227 134.516 141.226  0.00  0.00    +0.000 OA
ATOM     31  O   UNL     1     102.361 133.991 141.257  0.00  0.00    +0.000 OA
ATOM     32  O   UNL     1     103.462 132.853 140.890  0.00  0.00    +0.000 OA
BRANCH  29  33
ATOM     33  C   UNL     1     101.738 133.001 141.787  0.00  0.00    +0.000 C 
ATOM     34  O   UNL     1     101.141 133.323 141.649  0.00  0.00    +0.000 OA
ENDBRANCH  29  33
ENDBRANCH  23  27
ENDBRANCH   4  23
TORSDOF 10
ENDMDL
