MODEL 1
REMARK VINA RESULT:      -9.9      0.000      0.000
REMARK  Name = 44257969
REMARK  5 active torsions:
REMARK  status: ('A' for Active; 'I' for Inactive)
REMARK    1  A    between atoms: S_1  and  O_8
REMARK    2  A    between atoms: O_8  and  C_24
REMARK    3  A    between atoms: C_17  and  C_21
REMARK    4  A    between atoms: C_20  and  C_22
REMARK    5  A    between atoms: C_29  and  C_31
REMARK                            x       y       z     vdW  Elec       q    Type
REMARK                         _______ _______ _______ _____ _____    ______ ____
ROOT
ATOM      1  O   UNL     1     111.473 127.145 136.049  0.00  0.00    +0.000 OA
ATOM      2  O   UNL     1     111.875 124.278 136.068  0.00  0.00    +0.000 OA
ATOM      3  O   UNL     1     110.644 124.808 135.535  0.00  0.00    +0.000 OA
ATOM      4  C   UNL     1     112.694 126.559 136.574  0.00  0.00    +0.000 A 
ATOM      5  C   UNL     1     111.953 126.454 136.229  0.00  0.00    +0.000 A 
ATOM      6  C   UNL     1     113.163 125.903 136.751  0.00  0.00    +0.000 A 
ATOM      7  C   UNL     1     111.680 125.694 136.060  0.00  0.00    +0.000 A 
ATOM      8  C   UNL     1     112.890 125.143 136.583  0.00  0.00    +0.000 A 
ATOM      9  C   UNL     1     112.148 125.039 136.237  0.00  0.00    +0.000 A 
ATOM     10  C   UNL     1     110.909 125.572 135.700  0.00  0.00    +0.000 A 
ATOM     11  C   UNL     1     110.700 127.042 135.690  0.00  0.00    +0.000 A 
ATOM     12  C   UNL     1     110.416 126.251 135.514  0.00  0.00    +0.000 A 
ENDROOT
BRANCH   4  18
ATOM     13  O   UNL     1     113.380 127.745 136.171  0.00  0.00    +0.000 OA
ATOM     14  O   UNL     1     112.414 127.225 138.057  0.00  0.00    +0.000 OA
ATOM     15  O   UNL     1     112.960 128.745 138.395  0.00  0.00    +0.000 OA
ATOM     16  O   UNL     1     113.786 129.599 137.250  0.00  0.00    +0.000 OA
ATOM     17  C   UNL     1     112.827 127.652 137.485  0.00  0.00    +0.000 C 
ATOM     18  C   UNL     1     112.967 127.318 136.743  0.00  0.00    +0.000 C 
ATOM     19  C   UNL     1     113.100 128.412 137.654  0.00  0.00    +0.000 C 
ATOM     20  C   UNL     1     113.513 128.838 137.081  0.00  0.00    +0.000 C 
ATOM     21  C   UNL     1     113.653 128.505 136.340  0.00  0.00    +0.000 C 
BRANCH  21  23
ATOM     22  O   UNL     1     114.615 128.548 135.283  0.00  0.00    +0.000 OA
ATOM     23  C   UNL     1     114.066 128.932 135.766  0.00  0.00    +0.000 C 
ENDBRANCH  21  23
ENDBRANCH   4  18
BRANCH  11  26
ATOM     24  O   UNL     1     108.625 128.870 136.415  0.00  0.00    +0.000 OA
ATOM     25  O   UNL     1     108.832 129.671 134.987  0.00  0.00    +0.000 OA
ATOM     26  C   UNL     1     110.233 127.699 135.514  0.00  0.00    +0.000 A 
ATOM     27  C   UNL     1     109.663 127.956 136.052  0.00  0.00    +0.000 A 
ATOM     28  C   UNL     1     110.336 128.100 134.801  0.00  0.00    +0.000 A 
ATOM     29  C   UNL     1     109.196 128.613 135.877  0.00  0.00    +0.000 A 
ATOM     30  C   UNL     1     109.869 128.757 134.625  0.00  0.00    +0.000 A 
ATOM     31  C   UNL     1     109.299 129.014 135.163  0.00  0.00    +0.000 A 
ENDBRANCH  11  26
BRANCH   6  32
ATOM     32  O   UNL     1     113.905 126.008 137.097  0.00  0.00    +0.000 OA
BRANCH  32  33
ATOM     33  S   UNL     1     114.404 125.360 137.205  0.00  0.00    +0.000 S 
ATOM     34  O   UNL     1     114.904 124.712 137.313  0.00  0.00    +0.000 OA
ATOM     35  O   UNL     1     114.699 125.460 136.441  0.00  0.00    +0.000 OA
ATOM     36  O   UNL     1     114.110 125.260 137.970  0.00  0.00    +0.000 OA
ENDBRANCH  32  33
ENDBRANCH   6  32
TORSDOF 5
ENDMDL
MODEL 2
REMARK VINA RESULT:      -9.7      1.601      4.268
REMARK  Name = 44257969
REMARK  5 active torsions:
REMARK  status: ('A' for Active; 'I' for Inactive)
REMARK    1  A    between atoms: S_1  and  O_8
REMARK    2  A    between atoms: O_8  and  C_24
REMARK    3  A    between atoms: C_17  and  C_21
REMARK    4  A    between atoms: C_20  and  C_22
REMARK    5  A    between atoms: C_29  and  C_31
REMARK                            x       y       z     vdW  Elec       q    Type
REMARK                         _______ _______ _______ _____ _____    ______ ____
ROOT
ATOM      1  O   UNL     1     111.900 126.640 136.527  0.00  0.00    +0.000 OA
ATOM      2  O   UNL     1     109.495 125.955 135.069  0.00  0.00    +0.000 OA
ATOM      3  O   UNL     1     110.494 124.938 135.286  0.00  0.00    +0.000 OA
ATOM      4  C   UNL     1     110.863 127.626 136.281  0.00  0.00    +0.000 A 
ATOM      5  C   UNL     1     111.137 126.853 136.193  0.00  0.00    +0.000 A 
ATOM      6  C   UNL     1     110.131 127.842 135.965  0.00  0.00    +0.000 A 
ATOM      7  C   UNL     1     110.681 126.296 135.790  0.00  0.00    +0.000 A 
ATOM      8  C   UNL     1     109.676 127.286 135.561  0.00  0.00    +0.000 A 
ATOM      9  C   UNL     1     109.951 126.513 135.474  0.00  0.00    +0.000 A 
ATOM     10  C   UNL     1     110.957 125.488 135.692  0.00  0.00    +0.000 A 
ATOM     11  C   UNL     1     112.191 125.836 136.439  0.00  0.00    +0.000 A 
ATOM     12  C   UNL     1     111.717 125.257 136.019  0.00  0.00    +0.000 A 
ENDROOT
BRANCH   4  18
ATOM     13  O   UNL     1     111.238 128.267 137.501  0.00  0.00    +0.000 OA
ATOM     14  O   UNL     1     111.934 128.569 135.455  0.00  0.00    +0.000 OA
ATOM     15  O   UNL     1     112.846 129.683 136.262  0.00  0.00    +0.000 OA
ATOM     16  O   UNL     1     112.686 129.852 137.896  0.00  0.00    +0.000 OA
ATOM     17  C   UNL     1     111.854 128.654 136.271  0.00  0.00    +0.000 C 
ATOM     18  C   UNL     1     111.318 128.182 136.684  0.00  0.00    +0.000 C 
ATOM     19  C   UNL     1     112.310 129.211 136.675  0.00  0.00    +0.000 C 
ATOM     20  C   UNL     1     112.230 129.295 137.492  0.00  0.00    +0.000 C 
ATOM     21  C   UNL     1     111.694 128.823 137.905  0.00  0.00    +0.000 C 
BRANCH  21  23
ATOM     22  O   UNL     1     111.166 128.362 139.150  0.00  0.00    +0.000 OA
ATOM     23  C   UNL     1     111.614 128.908 138.722  0.00  0.00    +0.000 C 
ENDBRANCH  21  23
ENDBRANCH   4  18
BRANCH  11  26
ATOM     24  O   UNL     1     115.012 125.486 136.139  0.00  0.00    +0.000 OA
ATOM     25  O   UNL     1     115.116 124.982 137.707  0.00  0.00    +0.000 OA
ATOM     26  C   UNL     1     112.922 125.623 136.756  0.00  0.00    +0.000 A 
ATOM     27  C   UNL     1     113.601 125.661 136.289  0.00  0.00    +0.000 A 
ATOM     28  C   UNL     1     112.975 125.371 137.540  0.00  0.00    +0.000 A 
ATOM     29  C   UNL     1     114.333 125.447 136.606  0.00  0.00    +0.000 A 
ATOM     30  C   UNL     1     113.706 125.157 137.857  0.00  0.00    +0.000 A 
ATOM     31  C   UNL     1     114.385 125.195 137.390  0.00  0.00    +0.000 A 
ENDBRANCH  11  26
BRANCH   6  32
ATOM     32  O   UNL     1     109.857 128.615 136.053  0.00  0.00    +0.000 OA
BRANCH  32  33
ATOM     33  S   UNL     1     109.085 128.805 135.835  0.00  0.00    +0.000 S 
ATOM     34  O   UNL     1     108.311 128.995 135.616  0.00  0.00    +0.000 OA
ATOM     35  O   UNL     1     109.352 129.041 135.091  0.00  0.00    +0.000 OA
ATOM     36  O   UNL     1     108.816 128.569 136.578  0.00  0.00    +0.000 OA
ENDBRANCH  32  33
ENDBRANCH   6  32
TORSDOF 5
ENDMDL
MODEL 3
REMARK VINA RESULT:      -9.4      1.938      4.281
REMARK  Name = 44257969
REMARK  5 active torsions:
REMARK  status: ('A' for Active; 'I' for Inactive)
REMARK    1  A    between atoms: S_1  and  O_8
REMARK    2  A    between atoms: O_8  and  C_24
REMARK    3  A    between atoms: C_17  and  C_21
REMARK    4  A    between atoms: C_20  and  C_22
REMARK    5  A    between atoms: C_29  and  C_31
REMARK                            x       y       z     vdW  Elec       q    Type
REMARK                         _______ _______ _______ _____ _____    ______ ____
ROOT
ATOM      1  O   UNL     1     110.613 127.300 136.297  0.00  0.00    +0.000 OA
ATOM      2  O   UNL     1     108.057 128.559 135.783  0.00  0.00    +0.000 OA
ATOM      3  O   UNL     1     108.108 127.130 135.970  0.00  0.00    +0.000 OA
ATOM      4  C   UNL     1     110.506 128.735 136.102  0.00  0.00    +0.000 A 
ATOM      5  C   UNL     1     110.136 127.999 136.143  0.00  0.00    +0.000 A 
ATOM      6  C   UNL     1     110.059 129.413 135.954  0.00  0.00    +0.000 A 
ATOM      7  C   UNL     1     109.320 127.940 136.037  0.00  0.00    +0.000 A 
ATOM      8  C   UNL     1     109.243 129.355 135.848  0.00  0.00    +0.000 A 
ATOM      9  C   UNL     1     108.874 128.618 135.889  0.00  0.00    +0.000 A 
ATOM     10  C   UNL     1     108.924 127.179 136.077  0.00  0.00    +0.000 A 
ATOM     11  C   UNL     1     110.234 126.530 136.341  0.00  0.00    +0.000 A 
ATOM     12  C   UNL     1     109.384 126.469 136.230  0.00  0.00    +0.000 A 
ENDROOT
BRANCH   4  18
ATOM     13  O   UNL     1     111.634 128.887 136.966  0.00  0.00    +0.000 OA
ATOM     14  O   UNL     1     111.514 128.667 134.798  0.00  0.00    +0.000 OA
ATOM     15  O   UNL     1     113.146 128.784 135.010  0.00  0.00    +0.000 OA
ATOM     16  O   UNL     1     113.770 128.970 136.527  0.00  0.00    +0.000 OA
ATOM     17  C   UNL     1     111.826 128.760 135.556  0.00  0.00    +0.000 C 
ATOM     18  C   UNL     1     111.321 128.794 136.208  0.00  0.00    +0.000 C 
ATOM     19  C   UNL     1     112.642 128.818 135.662  0.00  0.00    +0.000 C 
ATOM     20  C   UNL     1     112.953 128.911 136.420  0.00  0.00    +0.000 C 
ATOM     21  C   UNL     1     112.450 128.945 137.072  0.00  0.00    +0.000 C 
BRANCH  21  23
ATOM     22  O   UNL     1     112.258 129.034 138.486  0.00  0.00    +0.000 OA
ATOM     23  C   UNL     1     112.761 129.038 137.831  0.00  0.00    +0.000 C 
ENDBRANCH  21  23
ENDBRANCH   4  18
BRANCH  11  26
ATOM     24  O   UNL     1     111.441 124.716 138.191  0.00  0.00    +0.000 OA
ATOM     25  O   UNL     1     112.030 123.826 136.932  0.00  0.00    +0.000 OA
ATOM     26  C   UNL     1     110.683 125.854 136.489  0.00  0.00    +0.000 A 
ATOM     27  C   UNL     1     110.837 125.623 137.265  0.00  0.00    +0.000 A 
ATOM     28  C   UNL     1     110.977 125.409 135.860  0.00  0.00    +0.000 A 
ATOM     29  C   UNL     1     111.286 124.947 137.414  0.00  0.00    +0.000 A 
ATOM     30  C   UNL     1     111.426 124.733 136.008  0.00  0.00    +0.000 A 
ATOM     31  C   UNL     1     111.581 124.502 136.785  0.00  0.00    +0.000 A 
ENDBRANCH  11  26
BRANCH   6  32
ATOM     32  O   UNL     1     110.429 130.150 135.913  0.00  0.00    +0.000 OA
BRANCH  32  33
ATOM     33  S   UNL     1     109.975 130.837 135.871  0.00  0.00    +0.000 S 
ATOM     34  O   UNL     1     109.519 131.524 135.829  0.00  0.00    +0.000 OA
ATOM     35  O   UNL     1     109.988 130.795 135.048  0.00  0.00    +0.000 OA
ATOM     36  O   UNL     1     109.960 130.879 136.695  0.00  0.00    +0.000 OA
ENDBRANCH  32  33
ENDBRANCH   6  32
TORSDOF 5
ENDMDL
MODEL 4
REMARK VINA RESULT:      -9.4      1.629      3.479
REMARK  Name = 44257969
REMARK  5 active torsions:
REMARK  status: ('A' for Active; 'I' for Inactive)
REMARK    1  A    between atoms: S_1  and  O_8
REMARK    2  A    between atoms: O_8  and  C_24
REMARK    3  A    between atoms: C_17  and  C_21
REMARK    4  A    between atoms: C_20  and  C_22
REMARK    5  A    between atoms: C_29  and  C_31
REMARK                            x       y       z     vdW  Elec       q    Type
REMARK                         _______ _______ _______ _____ _____    ______ ____
ROOT
ATOM      1  O   UNL     1     112.439 127.063 136.615  0.00  0.00    +0.000 OA
ATOM      2  O   UNL     1     114.356 124.902 136.431  0.00  0.00    +0.000 OA
ATOM      3  O   UNL     1     114.819 126.260 136.292  0.00  0.00    +0.000 OA
ATOM      4  C   UNL     1     112.026 125.677 136.749  0.00  0.00    +0.000 A 
ATOM      5  C   UNL     1     112.631 126.225 136.628  0.00  0.00    +0.000 A 
ATOM      6  C   UNL     1     112.198 124.870 136.763  0.00  0.00    +0.000 A 
ATOM      7  C   UNL     1     113.407 125.967 136.523  0.00  0.00    +0.000 A 
ATOM      8  C   UNL     1     112.974 124.611 136.657  0.00  0.00    +0.000 A 
ATOM      9  C   UNL     1     113.578 125.160 136.537  0.00  0.00    +0.000 A 
ATOM     10  C   UNL     1     114.046 126.528 136.397  0.00  0.00    +0.000 A 
ATOM     11  C   UNL     1     113.065 127.639 136.491  0.00  0.00    +0.000 A 
ATOM     12  C   UNL     1     113.873 127.370 136.381  0.00  0.00    +0.000 A 
ENDROOT
BRANCH   4  18
ATOM     13  O   UNL     1     110.975 126.118 137.610  0.00  0.00    +0.000 OA
ATOM     14  O   UNL     1     111.024 125.829 135.447  0.00  0.00    +0.000 OA
ATOM     15  O   UNL     1     109.471 126.346 135.658  0.00  0.00    +0.000 OA
ATOM     16  O   UNL     1     108.921 126.712 137.171  0.00  0.00    +0.000 OA
ATOM     17  C   UNL     1     110.748 126.012 136.203  0.00  0.00    +0.000 C 
ATOM     18  C   UNL     1     111.251 125.936 136.854  0.00  0.00    +0.000 C 
ATOM     19  C   UNL     1     109.972 126.270 136.309  0.00  0.00    +0.000 C 
ATOM     20  C   UNL     1     109.698 126.453 137.065  0.00  0.00    +0.000 C 
ATOM     21  C   UNL     1     110.199 126.377 137.716  0.00  0.00    +0.000 C 
BRANCH  21  23
ATOM     22  O   UNL     1     110.456 126.610 139.102  0.00  0.00    +0.000 OA
ATOM     23  C   UNL     1     109.925 126.559 138.472  0.00  0.00    +0.000 C 
ENDBRANCH  21  23
ENDBRANCH   4  18
BRANCH  11  26
ATOM     24  O   UNL     1     112.665 130.109 137.872  0.00  0.00    +0.000 OA
ATOM     25  O   UNL     1     112.367 130.864 136.436  0.00  0.00    +0.000 OA
ATOM     26  C   UNL     1     112.890 128.445 136.477  0.00  0.00    +0.000 A 
ATOM     27  C   UNL     1     112.865 128.874 137.181  0.00  0.00    +0.000 A 
ATOM     28  C   UNL     1     112.741 128.823 135.759  0.00  0.00    +0.000 A 
ATOM     29  C   UNL     1     112.690 129.680 137.168  0.00  0.00    +0.000 A 
ATOM     30  C   UNL     1     112.567 129.629 135.745  0.00  0.00    +0.000 A 
ATOM     31  C   UNL     1     112.541 130.058 136.450  0.00  0.00    +0.000 A 
ENDBRANCH  11  26
BRANCH   6  32
ATOM     32  O   UNL     1     111.593 124.322 136.883  0.00  0.00    +0.000 OA
BRANCH  32  33
ATOM     33  S   UNL     1     111.777 123.531 137.027  0.00  0.00    +0.000 S 
ATOM     34  O   UNL     1     111.961 122.739 137.170  0.00  0.00    +0.000 OA
ATOM     35  O   UNL     1     111.741 123.376 136.217  0.00  0.00    +0.000 OA
ATOM     36  O   UNL     1     111.813 123.685 137.837  0.00  0.00    +0.000 OA
ENDBRANCH  32  33
ENDBRANCH   6  32
TORSDOF 5
ENDMDL
MODEL 5
REMARK VINA RESULT:      -9.3      1.931      4.213
REMARK  Name = 44257969
REMARK  5 active torsions:
REMARK  status: ('A' for Active; 'I' for Inactive)
REMARK    1  A    between atoms: S_1  and  O_8
REMARK    2  A    between atoms: O_8  and  C_24
REMARK    3  A    between atoms: C_17  and  C_21
REMARK    4  A    between atoms: C_20  and  C_22
REMARK    5  A    between atoms: C_29  and  C_31
REMARK                            x       y       z     vdW  Elec       q    Type
REMARK                         _______ _______ _______ _____ _____    ______ ____
ROOT
ATOM      1  O   UNL     1     112.793 127.050 137.904  0.00  0.00    +0.000 OA
ATOM      2  O   UNL     1     113.603 128.083 140.484  0.00  0.00    +0.000 OA
ATOM      3  O   UNL     1     113.379 126.666 140.338  0.00  0.00    +0.000 OA
ATOM      4  C   UNL     1     113.032 128.468 138.106  0.00  0.00    +0.000 A 
ATOM      5  C   UNL     1     113.013 127.705 138.417  0.00  0.00    +0.000 A 
ATOM      6  C   UNL     1     113.242 129.105 138.589  0.00  0.00    +0.000 A 
ATOM      7  C   UNL     1     113.203 127.576 139.209  0.00  0.00    +0.000 A 
ATOM      8  C   UNL     1     113.432 128.976 139.381  0.00  0.00    +0.000 A 
ATOM      9  C   UNL     1     113.413 128.211 139.691  0.00  0.00    +0.000 A 
ATOM     10  C   UNL     1     113.187 126.784 139.544  0.00  0.00    +0.000 A 
ATOM     11  C   UNL     1     112.771 126.252 138.222  0.00  0.00    +0.000 A 
ATOM     12  C   UNL     1     112.969 126.118 139.047  0.00  0.00    +0.000 A 
ENDROOT
BRANCH   4  18
ATOM     13  O   UNL     1     113.431 128.565 136.738  0.00  0.00    +0.000 OA
ATOM     14  O   UNL     1     111.473 128.789 137.675  0.00  0.00    +0.000 OA
ATOM     15  O   UNL     1     111.092 129.046 136.090  0.00  0.00    +0.000 OA
ATOM     16  O   UNL     1     112.271 128.982 134.936  0.00  0.00    +0.000 OA
ATOM     17  C   UNL     1     112.062 128.757 137.098  0.00  0.00    +0.000 C 
ATOM     18  C   UNL     1     112.842 128.597 137.315  0.00  0.00    +0.000 C 
ATOM     19  C   UNL     1     111.871 128.886 136.306  0.00  0.00    +0.000 C 
ATOM     20  C   UNL     1     112.462 128.854 135.730  0.00  0.00    +0.000 C 
ATOM     21  C   UNL     1     113.241 128.693 135.946  0.00  0.00    +0.000 C 
BRANCH  21  23
ATOM     22  O   UNL     1     114.562 128.320 135.547  0.00  0.00    +0.000 OA
ATOM     23  C   UNL     1     113.831 128.661 135.370  0.00  0.00    +0.000 C 
ENDBRANCH  21  23
ENDBRANCH   4  18
BRANCH  11  26
ATOM     24  O   UNL     1     113.500 124.227 136.340  0.00  0.00    +0.000 OA
ATOM     25  O   UNL     1     111.932 123.716 136.283  0.00  0.00    +0.000 OA
ATOM     26  C   UNL     1     112.561 125.618 137.737  0.00  0.00    +0.000 A 
ATOM     27  C   UNL     1     113.135 125.240 137.281  0.00  0.00    +0.000 A 
ATOM     28  C   UNL     1     111.778 125.362 137.708  0.00  0.00    +0.000 A 
ATOM     29  C   UNL     1     112.926 124.606 136.796  0.00  0.00    +0.000 A 
ATOM     30  C   UNL     1     111.568 124.728 137.224  0.00  0.00    +0.000 A 
ATOM     31  C   UNL     1     112.142 124.350 136.768  0.00  0.00    +0.000 A 
ENDBRANCH  11  26
BRANCH   6  32
ATOM     32  O   UNL     1     113.261 129.868 138.278  0.00  0.00    +0.000 OA
BRANCH  32  33
ATOM     33  S   UNL     1     113.578 130.486 138.724  0.00  0.00    +0.000 S 
ATOM     34  O   UNL     1     113.895 131.104 139.170  0.00  0.00    +0.000 OA
ATOM     35  O   UNL     1     112.825 130.667 139.008  0.00  0.00    +0.000 OA
ATOM     36  O   UNL     1     114.332 130.306 138.440  0.00  0.00    +0.000 OA
ENDBRANCH  32  33
ENDBRANCH   6  32
TORSDOF 5
ENDMDL
MODEL 6
REMARK VINA RESULT:      -9.3      2.413      4.476
REMARK  Name = 44257969
REMARK  5 active torsions:
REMARK  status: ('A' for Active; 'I' for Inactive)
REMARK    1  A    between atoms: S_1  and  O_8
REMARK    2  A    between atoms: O_8  and  C_24
REMARK    3  A    between atoms: C_17  and  C_21
REMARK    4  A    between atoms: C_20  and  C_22
REMARK    5  A    between atoms: C_29  and  C_31
REMARK                            x       y       z     vdW  Elec       q    Type
REMARK                         _______ _______ _______ _____ _____    ______ ____
ROOT
ATOM      1  O   UNL     1     113.036 127.062 137.691  0.00  0.00    +0.000 OA
ATOM      2  O   UNL     1     113.607 129.644 136.515  0.00  0.00    +0.000 OA
ATOM      3  O   UNL     1     113.602 128.477 135.669  0.00  0.00    +0.000 OA
ATOM      4  C   UNL     1     113.054 128.268 138.498  0.00  0.00    +0.000 A 
ATOM      5  C   UNL     1     113.140 127.912 137.759  0.00  0.00    +0.000 A 
ATOM      6  C   UNL     1     113.152 129.085 138.576  0.00  0.00    +0.000 A 
ATOM      7  C   UNL     1     113.325 128.371 137.099  0.00  0.00    +0.000 A 
ATOM      8  C   UNL     1     113.337 129.543 137.915  0.00  0.00    +0.000 A 
ATOM      9  C   UNL     1     113.423 129.185 137.177  0.00  0.00    +0.000 A 
ATOM     10  C   UNL     1     113.417 128.010 136.324  0.00  0.00    +0.000 A 
ATOM     11  C   UNL     1     113.124 126.684 136.924  0.00  0.00    +0.000 A 
ATOM     12  C   UNL     1     113.316 127.162 136.236  0.00  0.00    +0.000 A 
ENDROOT
BRANCH   4  18
ATOM     13  O   UNL     1     113.473 127.478 139.612  0.00  0.00    +0.000 OA
ATOM     14  O   UNL     1     111.477 128.016 138.912  0.00  0.00    +0.000 OA
ATOM     15  O   UNL     1     111.108 127.099 140.233  0.00  0.00    +0.000 OA
ATOM     16  O   UNL     1     112.316 126.435 141.141  0.00  0.00    +0.000 OA
ATOM     17  C   UNL     1     112.081 127.684 139.365  0.00  0.00    +0.000 C 
ATOM     18  C   UNL     1     112.870 127.811 139.158  0.00  0.00    +0.000 C 
ATOM     19  C   UNL     1     111.896 127.225 140.026  0.00  0.00    +0.000 C 
ATOM     20  C   UNL     1     112.501 126.894 140.479  0.00  0.00    +0.000 C 
ATOM     21  C   UNL     1     113.289 127.020 140.272  0.00  0.00    +0.000 C 
BRANCH  21  23
ATOM     22  O   UNL     1     114.667 126.968 140.650  0.00  0.00    +0.000 OA
ATOM     23  C   UNL     1     113.893 126.688 140.726  0.00  0.00    +0.000 C 
ENDBRANCH  21  23
ENDBRANCH   4  18
BRANCH  11  26
ATOM     24  O   UNL     1     111.451 124.434 136.367  0.00  0.00    +0.000 OA
ATOM     25  O   UNL     1     112.729 123.421 136.623  0.00  0.00    +0.000 OA
ATOM     26  C   UNL     1     113.026 125.869 136.849  0.00  0.00    +0.000 A 
ATOM     27  C   UNL     1     112.288 125.559 136.646  0.00  0.00    +0.000 A 
ATOM     28  C   UNL     1     113.664 125.362 136.977  0.00  0.00    +0.000 A 
ATOM     29  C   UNL     1     112.189 124.743 136.570  0.00  0.00    +0.000 A 
ATOM     30  C   UNL     1     113.565 124.546 136.901  0.00  0.00    +0.000 A 
ATOM     31  C   UNL     1     112.827 124.237 136.698  0.00  0.00    +0.000 A 
ENDBRANCH  11  26
BRANCH   6  32
ATOM     32  O   UNL     1     113.066 129.441 139.315  0.00  0.00    +0.000 OA
BRANCH  32  33
ATOM     33  S   UNL     1     113.281 130.230 139.419  0.00  0.00    +0.000 S 
ATOM     34  O   UNL     1     113.496 131.021 139.522  0.00  0.00    +0.000 OA
ATOM     35  O   UNL     1     112.498 130.460 139.294  0.00  0.00    +0.000 OA
ATOM     36  O   UNL     1     114.064 130.002 139.544  0.00  0.00    +0.000 OA
ENDBRANCH  32  33
ENDBRANCH   6  32
TORSDOF 5
ENDMDL
MODEL 7
REMARK VINA RESULT:      -9.3     12.841     13.873
REMARK  Name = 44257969
REMARK  5 active torsions:
REMARK  status: ('A' for Active; 'I' for Inactive)
REMARK    1  A    between atoms: S_1  and  O_8
REMARK    2  A    between atoms: O_8  and  C_24
REMARK    3  A    between atoms: C_17  and  C_21
REMARK    4  A    between atoms: C_20  and  C_22
REMARK    5  A    between atoms: C_29  and  C_31
REMARK                            x       y       z     vdW  Elec       q    Type
REMARK                         _______ _______ _______ _____ _____    ______ ____
ROOT
ATOM      1  O   UNL     1     103.689 124.654 147.249  0.00  0.00    +0.000 OA
ATOM      2  O   UNL     1     104.891 123.902 144.725  0.00  0.00    +0.000 OA
ATOM      3  O   UNL     1     103.710 123.206 145.173  0.00  0.00    +0.000 OA
ATOM      4  C   UNL     1     104.879 125.324 146.753  0.00  0.00    +0.000 A 
ATOM      5  C   UNL     1     104.296 124.750 146.647  0.00  0.00    +0.000 A 
ATOM      6  C   UNL     1     105.467 125.424 146.181  0.00  0.00    +0.000 A 
ATOM      7  C   UNL     1     104.300 124.276 145.972  0.00  0.00    +0.000 A 
ATOM      8  C   UNL     1     105.471 124.951 145.506  0.00  0.00    +0.000 A 
ATOM      9  C   UNL     1     104.887 124.376 145.402  0.00  0.00    +0.000 A 
ATOM     10  C   UNL     1     103.698 123.674 145.851  0.00  0.00    +0.000 A 
ATOM     11  C   UNL     1     103.080 124.058 147.145  0.00  0.00    +0.000 A 
ATOM     12  C   UNL     1     103.084 123.565 146.442  0.00  0.00    +0.000 A 
ENDROOT
BRANCH   4  18
ATOM     13  O   UNL     1     104.431 126.492 147.442  0.00  0.00    +0.000 OA
ATOM     14  O   UNL     1     105.759 124.880 148.076  0.00  0.00    +0.000 OA
ATOM     15  O   UNL     1     105.750 125.827 149.427  0.00  0.00    +0.000 OA
ATOM     16  O   UNL     1     104.863 127.218 149.455  0.00  0.00    +0.000 OA
ATOM     17  C   UNL     1     105.315 125.575 148.090  0.00  0.00    +0.000 C 
ATOM     18  C   UNL     1     104.875 125.797 147.427  0.00  0.00    +0.000 C 
ATOM     19  C   UNL     1     105.311 126.049 148.765  0.00  0.00    +0.000 C 
ATOM     20  C   UNL     1     104.867 126.744 148.778  0.00  0.00    +0.000 C 
ATOM     21  C   UNL     1     104.427 126.966 148.117  0.00  0.00    +0.000 C 
BRANCH  21  23
ATOM     22  O   UNL     1     103.897 128.108 147.441  0.00  0.00    +0.000 OA
ATOM     23  C   UNL     1     103.983 127.661 148.130  0.00  0.00    +0.000 C 
ENDBRANCH  21  23
ENDBRANCH   4  18
BRANCH  11  26
ATOM     24  O   UNL     1     102.188 122.899 149.601  0.00  0.00    +0.000 OA
ATOM     25  O   UNL     1     100.736 123.665 149.435  0.00  0.00    +0.000 OA
ATOM     26  C   UNL     1     102.494 123.960 147.718  0.00  0.00    +0.000 A 
ATOM     27  C   UNL     1     102.634 123.479 148.373  0.00  0.00    +0.000 A 
ATOM     28  C   UNL     1     101.768 124.343 147.635  0.00  0.00    +0.000 A 
ATOM     29  C   UNL     1     102.048 123.380 148.946  0.00  0.00    +0.000 A 
ATOM     30  C   UNL     1     101.182 124.244 148.208  0.00  0.00    +0.000 A 
ATOM     31  C   UNL     1     101.322 123.763 148.863  0.00  0.00    +0.000 A 
ENDBRANCH  11  26
BRANCH   6  32
ATOM     32  O   UNL     1     106.049 125.998 146.287  0.00  0.00    +0.000 OA
BRANCH  32  33
ATOM     33  S   UNL     1     106.566 126.178 145.669  0.00  0.00    +0.000 S 
ATOM     34  O   UNL     1     107.083 126.358 145.051  0.00  0.00    +0.000 OA
ATOM     35  O   UNL     1     106.050 126.765 145.408  0.00  0.00    +0.000 OA
ATOM     36  O   UNL     1     107.084 125.590 145.930  0.00  0.00    +0.000 OA
ENDBRANCH  32  33
ENDBRANCH   6  32
TORSDOF 5
ENDMDL
MODEL 8
REMARK VINA RESULT:      -9.1      2.478      4.028
REMARK  Name = 44257969
REMARK  5 active torsions:
REMARK  status: ('A' for Active; 'I' for Inactive)
REMARK    1  A    between atoms: S_1  and  O_8
REMARK    2  A    between atoms: O_8  and  C_24
REMARK    3  A    between atoms: C_17  and  C_21
REMARK    4  A    between atoms: C_20  and  C_22
REMARK    5  A    between atoms: C_29  and  C_31
REMARK                            x       y       z     vdW  Elec       q    Type
REMARK                         _______ _______ _______ _____ _____    ______ ____
ROOT
ATOM      1  O   UNL     1     110.146 130.152 136.593  0.00  0.00    +0.000 OA
ATOM      2  O   UNL     1     108.100 128.358 135.607  0.00  0.00    +0.000 OA
ATOM      3  O   UNL     1     107.717 129.671 136.065  0.00  0.00    +0.000 OA
ATOM      4  C   UNL     1     110.478 128.820 136.121  0.00  0.00    +0.000 A 
ATOM      5  C   UNL     1     109.905 129.396 136.265  0.00  0.00    +0.000 A 
ATOM      6  C   UNL     1     110.258 128.089 135.805  0.00  0.00    +0.000 A 
ATOM      7  C   UNL     1     109.113 129.242 136.094  0.00  0.00    +0.000 A 
ATOM      8  C   UNL     1     109.466 127.935 135.634  0.00  0.00    +0.000 A 
ATOM      9  C   UNL     1     108.894 128.512 135.779  0.00  0.00    +0.000 A 
ATOM     10  C   UNL     1     108.507 129.834 136.239  0.00  0.00    +0.000 A 
ATOM     11  C   UNL     1     109.554 130.756 136.746  0.00  0.00    +0.000 A 
ATOM     12  C   UNL     1     108.730 130.596 136.567  0.00  0.00    +0.000 A 
ENDROOT
BRANCH   4  18
ATOM     13  O   UNL     1     111.568 128.813 137.043  0.00  0.00    +0.000 OA
ATOM     14  O   UNL     1     111.465 129.449 134.958  0.00  0.00    +0.000 OA
ATOM     15  O   UNL     1     113.049 129.757 135.301  0.00  0.00    +0.000 OA
ATOM     16  O   UNL     1     113.647 129.436 136.805  0.00  0.00    +0.000 OA
ATOM     17  C   UNL     1     111.764 129.289 135.710  0.00  0.00    +0.000 C 
ATOM     18  C   UNL     1     111.269 128.974 136.292  0.00  0.00    +0.000 C 
ATOM     19  C   UNL     1     112.556 129.443 135.881  0.00  0.00    +0.000 C 
ATOM     20  C   UNL     1     112.854 129.282 136.634  0.00  0.00    +0.000 C 
ATOM     21  C   UNL     1     112.361 128.967 137.215  0.00  0.00    +0.000 C 
BRANCH  21  23
ATOM     22  O   UNL     1     112.151 128.545 138.564  0.00  0.00    +0.000 OA
ATOM     23  C   UNL     1     112.658 128.806 137.967  0.00  0.00    +0.000 C 
ENDBRANCH  21  23
ENDBRANCH   4  18
BRANCH  11  26
ATOM     24  O   UNL     1     110.109 132.407 139.012  0.00  0.00    +0.000 OA
ATOM     25  O   UNL     1     110.444 133.673 138.008  0.00  0.00    +0.000 OA
ATOM     26  C   UNL     1     109.777 131.485 137.061  0.00  0.00    +0.000 A 
ATOM     27  C   UNL     1     109.832 131.582 137.878  0.00  0.00    +0.000 A 
ATOM     28  C   UNL     1     109.944 132.118 136.560  0.00  0.00    +0.000 A 
ATOM     29  C   UNL     1     110.054 132.311 138.195  0.00  0.00    +0.000 A 
ATOM     30  C   UNL     1     110.167 132.848 136.875  0.00  0.00    +0.000 A 
ATOM     31  C   UNL     1     110.222 132.944 137.693  0.00  0.00    +0.000 A 
ENDBRANCH  11  26
BRANCH   6  32
ATOM     32  O   UNL     1     110.831 127.514 135.661  0.00  0.00    +0.000 OA
BRANCH  32  33
ATOM     33  S   UNL     1     110.603 126.753 135.437  0.00  0.00    +0.000 S 
ATOM     34  O   UNL     1     110.375 125.992 135.213  0.00  0.00    +0.000 OA
ATOM     35  O   UNL     1     110.530 126.541 136.231  0.00  0.00    +0.000 OA
ATOM     36  O   UNL     1     110.676 126.964 134.643  0.00  0.00    +0.000 OA
ENDBRANCH  32  33
ENDBRANCH   6  32
TORSDOF 5
ENDMDL
