MODEL 1
REMARK VINA RESULT:      -7.9      0.000      0.000
REMARK  Name = 13886678
REMARK  3 active torsions:
REMARK  status: ('A' for Active; 'I' for Inactive)
REMARK    1  A    between atoms: O_3  and  C_12
REMARK    2  A    between atoms: O_4  and  C_18
REMARK    3  A    between atoms: C_6  and  C_8
REMARK                            x       y       z     vdW  Elec       q    Type
REMARK                         _______ _______ _______ _____ _____    ______ ____
ROOT
ATOM      1  O   UNL     1     105.893 125.167 146.149  0.00  0.00    +0.000 OA
ATOM      2  O   UNL     1     104.789 124.289 148.184  0.00  0.00    +0.000 OA
ATOM      3  O   UNL     1     108.410 125.405 147.593  0.00  0.00    +0.000 OA
ATOM      4  C   UNL     1     104.725 124.671 146.807  0.00  0.00    +0.000 C 
ATOM      5  C   UNL     1     105.093 124.963 146.130  0.00  0.00    +0.000 C 
ATOM      6  C   UNL     1     105.157 124.582 147.505  0.00  0.00    +0.000 C 
ATOM      7  C   UNL     1     105.956 124.785 147.524  0.00  0.00    +0.000 A 
ATOM      8  C   UNL     1     106.324 125.077 146.847  0.00  0.00    +0.000 A 
ATOM      9  C   UNL     1     106.395 124.687 148.258  0.00  0.00    +0.000 A 
ATOM     10  C   UNL     1     107.156 125.292 146.854  0.00  0.00    +0.000 A 
ATOM     11  C   UNL     1     107.228 124.897 148.284  0.00  0.00    +0.000 A 
ATOM     12  C   UNL     1     107.611 125.201 147.577  0.00  0.00    +0.000 A 
ENDROOT
BRANCH   4  13
ATOM     13  C   UNL     1     103.926 124.468 146.789  0.00  0.00    +0.000 A 
ATOM     14  C   UNL     1     103.677 123.813 146.351  0.00  0.00    +0.000 A 
ATOM     15  C   UNL     1     103.375 124.918 147.207  0.00  0.00    +0.000 A 
ATOM     16  C   UNL     1     102.878 123.610 146.333  0.00  0.00    +0.000 A 
ATOM     17  C   UNL     1     102.575 124.715 147.188  0.00  0.00    +0.000 A 
ATOM     18  C   UNL     1     102.328 124.060 146.751  0.00  0.00    +0.000 A 
BRANCH  14  19
ATOM     19  O   UNL     1     104.227 123.363 145.934  0.00  0.00    +0.000 OA
ATOM     20  C   UNL     1     103.973 122.745 145.451  0.00  0.00    +0.000 C 
ENDBRANCH  14  19
BRANCH  18  21
ATOM     21  O   UNL     1     101.528 123.857 146.732  0.00  0.00    +0.000 OA
ATOM     22  C   UNL     1     101.096 123.812 147.434  0.00  0.00    +0.000 C 
ENDBRANCH  18  21
ENDBRANCH   4  13
TORSDOF 3
ENDMDL
MODEL 2
REMARK VINA RESULT:      -7.5      7.189      9.183
REMARK  Name = 13886678
REMARK  3 active torsions:
REMARK  status: ('A' for Active; 'I' for Inactive)
REMARK    1  A    between atoms: O_3  and  C_12
REMARK    2  A    between atoms: O_4  and  C_18
REMARK    3  A    between atoms: C_6  and  C_8
REMARK                            x       y       z     vdW  Elec       q    Type
REMARK                         _______ _______ _______ _____ _____    ______ ____
ROOT
ATOM      1  O   UNL     1     102.722 123.907 138.239  0.00  0.00    +0.000 OA
ATOM      2  O   UNL     1     105.112 123.289 138.068  0.00  0.00    +0.000 OA
ATOM      3  O   UNL     1     102.221 122.780 135.601  0.00  0.00    +0.000 OA
ATOM      4  C   UNL     1     104.035 123.876 138.802  0.00  0.00    +0.000 C 
ATOM      5  C   UNL     1     103.239 124.082 138.859  0.00  0.00    +0.000 C 
ATOM      6  C   UNL     1     104.316 123.495 138.125  0.00  0.00    +0.000 C 
ATOM      7  C   UNL     1     103.799 123.321 137.507  0.00  0.00    +0.000 A 
ATOM      8  C   UNL     1     103.003 123.526 137.564  0.00  0.00    +0.000 A 
ATOM      9  C   UNL     1     104.103 122.923 136.807  0.00  0.00    +0.000 A 
ATOM     10  C   UNL     1     102.454 123.350 136.925  0.00  0.00    +0.000 A 
ATOM     11  C   UNL     1     103.570 122.739 136.159  0.00  0.00    +0.000 A 
ATOM     12  C   UNL     1     102.740 122.954 136.219  0.00  0.00    +0.000 A 
ENDROOT
BRANCH   4  13
ATOM     13  C   UNL     1     104.552 124.050 139.421  0.00  0.00    +0.000 A 
ATOM     14  C   UNL     1     104.482 123.652 140.141  0.00  0.00    +0.000 A 
ATOM     15  C   UNL     1     105.138 124.621 139.320  0.00  0.00    +0.000 A 
ATOM     16  C   UNL     1     104.999 123.827 140.760  0.00  0.00    +0.000 A 
ATOM     17  C   UNL     1     105.656 124.796 139.940  0.00  0.00    +0.000 A 
ATOM     18  C   UNL     1     105.585 124.398 140.659  0.00  0.00    +0.000 A 
BRANCH  14  19
ATOM     19  O   UNL     1     103.896 123.082 140.241  0.00  0.00    +0.000 OA
ATOM     20  C   UNL     1     103.776 122.739 140.982  0.00  0.00    +0.000 C 
ENDBRANCH  14  19
BRANCH  18  21
ATOM     21  O   UNL     1     106.103 124.572 141.279  0.00  0.00    +0.000 OA
ATOM     22  C   UNL     1     106.888 124.766 141.118  0.00  0.00    +0.000 C 
ENDBRANCH  18  21
ENDBRANCH   4  13
TORSDOF 3
ENDMDL
MODEL 3
REMARK VINA RESULT:      -7.4     11.270     12.576
REMARK  Name = 13886678
REMARK  3 active torsions:
REMARK  status: ('A' for Active; 'I' for Inactive)
REMARK    1  A    between atoms: O_3  and  C_12
REMARK    2  A    between atoms: O_4  and  C_18
REMARK    3  A    between atoms: C_6  and  C_8
REMARK                            x       y       z     vdW  Elec       q    Type
REMARK                         _______ _______ _______ _____ _____    ______ ____
ROOT
ATOM      1  O   UNL     1     112.117 124.356 136.969  0.00  0.00    +0.000 OA
ATOM      2  O   UNL     1     112.156 126.739 136.300  0.00  0.00    +0.000 OA
ATOM      3  O   UNL     1     115.016 124.364 137.237  0.00  0.00    +0.000 OA
ATOM      4  C   UNL     1     111.424 125.541 136.570  0.00  0.00    +0.000 C 
ATOM      5  C   UNL     1     111.411 124.747 136.792  0.00  0.00    +0.000 C 
ATOM      6  C   UNL     1     112.143 125.945 136.523  0.00  0.00    +0.000 C 
ATOM      7  C   UNL     1     112.847 125.554 136.699  0.00  0.00    +0.000 A 
ATOM      8  C   UNL     1     112.834 124.760 136.922  0.00  0.00    +0.000 A 
ATOM      9  C   UNL     1     113.589 125.986 136.646  0.00  0.00    +0.000 A 
ATOM     10  C   UNL     1     113.562 124.342 137.108  0.00  0.00    +0.000 A 
ATOM     11  C   UNL     1     114.326 125.584 136.828  0.00  0.00    +0.000 A 
ATOM     12  C   UNL     1     114.313 124.757 137.060  0.00  0.00    +0.000 A 
ENDROOT
BRANCH   4  13
ATOM     13  C   UNL     1     110.720 125.932 136.394  0.00  0.00    +0.000 A 
ATOM     14  C   UNL     1     110.204 126.146 137.002  0.00  0.00    +0.000 A 
ATOM     15  C   UNL     1     110.530 126.108 135.610  0.00  0.00    +0.000 A 
ATOM     16  C   UNL     1     109.499 126.537 136.826  0.00  0.00    +0.000 A 
ATOM     17  C   UNL     1     109.824 126.500 135.435  0.00  0.00    +0.000 A 
ATOM     18  C   UNL     1     109.310 126.714 136.043  0.00  0.00    +0.000 A 
BRANCH  14  19
ATOM     19  O   UNL     1     110.394 125.970 137.784  0.00  0.00    +0.000 OA
ATOM     20  C   UNL     1     109.879 126.183 138.392  0.00  0.00    +0.000 C 
ENDBRANCH  14  19
BRANCH  18  21
ATOM     21  O   UNL     1     108.604 127.106 135.867  0.00  0.00    +0.000 OA
ATOM     22  C   UNL     1     108.616 127.905 135.664  0.00  0.00    +0.000 C 
ENDBRANCH  18  21
ENDBRANCH   4  13
TORSDOF 3
ENDMDL
MODEL 4
REMARK VINA RESULT:      -7.4      0.867      4.276
REMARK  Name = 13886678
REMARK  3 active torsions:
REMARK  status: ('A' for Active; 'I' for Inactive)
REMARK    1  A    between atoms: O_3  and  C_12
REMARK    2  A    between atoms: O_4  and  C_18
REMARK    3  A    between atoms: C_6  and  C_8
REMARK                            x       y       z     vdW  Elec       q    Type
REMARK                         _______ _______ _______ _____ _____    ______ ____
ROOT
ATOM      1  O   UNL     1     102.972 125.016 146.977  0.00  0.00    +0.000 OA
ATOM      2  O   UNL     1     104.632 123.378 146.147  0.00  0.00    +0.000 OA
ATOM      3  O   UNL     1     100.804 123.199 146.285  0.00  0.00    +0.000 OA
ATOM      4  C   UNL     1     104.331 124.647 146.734  0.00  0.00    +0.000 C 
ATOM      5  C   UNL     1     103.778 125.192 147.010  0.00  0.00    +0.000 C 
ATOM      6  C   UNL     1     104.079 123.924 146.424  0.00  0.00    +0.000 C 
ATOM      7  C   UNL     1     103.273 123.749 146.391  0.00  0.00    +0.000 A 
ATOM      8  C   UNL     1     102.721 124.294 146.667  0.00  0.00    +0.000 A 
ATOM      9  C   UNL     1     103.024 122.992 146.066  0.00  0.00    +0.000 A 
ATOM     10  C   UNL     1     101.878 124.123 146.638  0.00  0.00    +0.000 A 
ATOM     11  C   UNL     1     102.187 122.804 146.029  0.00  0.00    +0.000 A 
ATOM     12  C   UNL     1     101.610 123.373 146.317  0.00  0.00    +0.000 A 
ENDROOT
BRANCH   4  13
ATOM     13  C   UNL     1     105.136 124.822 146.766  0.00  0.00    +0.000 A 
ATOM     14  C   UNL     1     105.470 125.330 146.208  0.00  0.00    +0.000 A 
ATOM     15  C   UNL     1     105.607 124.490 147.357  0.00  0.00    +0.000 A 
ATOM     16  C   UNL     1     106.275 125.506 146.241  0.00  0.00    +0.000 A 
ATOM     17  C   UNL     1     106.413 124.666 147.389  0.00  0.00    +0.000 A 
ATOM     18  C   UNL     1     106.747 125.174 146.831  0.00  0.00    +0.000 A 
BRANCH  14  19
ATOM     19  O   UNL     1     104.999 125.662 145.619  0.00  0.00    +0.000 OA
ATOM     20  C   UNL     1     105.324 126.201 145.085  0.00  0.00    +0.000 C 
ENDBRANCH  14  19
BRANCH  18  21
ATOM     21  O   UNL     1     107.553 125.350 146.864  0.00  0.00    +0.000 OA
ATOM     22  C   UNL     1     107.946 125.351 147.589  0.00  0.00    +0.000 C 
ENDBRANCH  18  21
ENDBRANCH   4  13
TORSDOF 3
ENDMDL
MODEL 5
REMARK VINA RESULT:      -7.3      7.958      8.805
REMARK  Name = 13886678
REMARK  3 active torsions:
REMARK  status: ('A' for Active; 'I' for Inactive)
REMARK    1  A    between atoms: O_3  and  C_12
REMARK    2  A    between atoms: O_4  and  C_18
REMARK    3  A    between atoms: C_6  and  C_8
REMARK                            x       y       z     vdW  Elec       q    Type
REMARK                         _______ _______ _______ _____ _____    ______ ____
ROOT
ATOM      1  O   UNL     1     103.222 129.654 140.787  0.00  0.00    +0.000 OA
ATOM      2  O   UNL     1     103.090 130.811 142.971  0.00  0.00    +0.000 OA
ATOM      3  O   UNL     1     104.903 127.587 141.961  0.00  0.00    +0.000 OA
ATOM      4  C   UNL     1     102.743 130.738 141.586  0.00  0.00    +0.000 C 
ATOM      5  C   UNL     1     102.788 130.353 140.859  0.00  0.00    +0.000 C 
ATOM      6  C   UNL     1     103.134 130.425 142.243  0.00  0.00    +0.000 C 
ATOM      7  C   UNL     1     103.568 129.728 142.171  0.00  0.00    +0.000 A 
ATOM      8  C   UNL     1     103.612 129.343 141.444  0.00  0.00    +0.000 A 
ATOM      9  C   UNL     1     103.970 129.413 142.863  0.00  0.00    +0.000 A 
ATOM     10  C   UNL     1     104.061 128.614 141.356  0.00  0.00    +0.000 A 
ATOM     11  C   UNL     1     104.424 128.686 142.795  0.00  0.00    +0.000 A 
ATOM     12  C   UNL     1     104.470 128.285 142.036  0.00  0.00    +0.000 A 
ENDROOT
BRANCH   4  13
ATOM     13  C   UNL     1     102.309 131.435 141.658  0.00  0.00    +0.000 A 
ATOM     14  C   UNL     1     102.599 132.136 141.332  0.00  0.00    +0.000 A 
ATOM     15  C   UNL     1     101.587 131.433 142.056  0.00  0.00    +0.000 A 
ATOM     16  C   UNL     1     102.165 132.834 141.404  0.00  0.00    +0.000 A 
ATOM     17  C   UNL     1     101.153 132.132 142.128  0.00  0.00    +0.000 A 
ATOM     18  C   UNL     1     101.442 132.832 141.802  0.00  0.00    +0.000 A 
BRANCH  14  19
ATOM     19  O   UNL     1     103.320 132.139 140.934  0.00  0.00    +0.000 OA
ATOM     20  C   UNL     1     103.614 132.840 140.615  0.00  0.00    +0.000 C 
ENDBRANCH  14  19
BRANCH  18  21
ATOM     21  O   UNL     1     101.008 133.530 141.874  0.00  0.00    +0.000 OA
ATOM     22  C   UNL     1     100.713 133.759 142.610  0.00  0.00    +0.000 C 
ENDBRANCH  18  21
ENDBRANCH   4  13
TORSDOF 3
ENDMDL
MODEL 6
REMARK VINA RESULT:      -7.3     11.125     12.179
REMARK  Name = 13886678
REMARK  3 active torsions:
REMARK  status: ('A' for Active; 'I' for Inactive)
REMARK    1  A    between atoms: O_3  and  C_12
REMARK    2  A    between atoms: O_4  and  C_18
REMARK    3  A    between atoms: C_6  and  C_8
REMARK                            x       y       z     vdW  Elec       q    Type
REMARK                         _______ _______ _______ _____ _____    ______ ____
ROOT
ATOM      1  O   UNL     1     113.850 125.961 138.073  0.00  0.00    +0.000 OA
ATOM      2  O   UNL     1     111.428 126.371 138.378  0.00  0.00    +0.000 OA
ATOM      3  O   UNL     1     114.381 126.984 140.747  0.00  0.00    +0.000 OA
ATOM      4  C   UNL     1     112.514 125.914 137.568  0.00  0.00    +0.000 C 
ATOM      5  C   UNL     1     113.320 125.777 137.466  0.00  0.00    +0.000 C 
ATOM      6  C   UNL     1     112.235 126.234 138.276  0.00  0.00    +0.000 C 
ATOM      7  C   UNL     1     112.765 126.418 138.882  0.00  0.00    +0.000 A 
ATOM      8  C   UNL     1     113.571 126.281 138.780  0.00  0.00    +0.000 A 
ATOM      9  C   UNL     1     112.462 126.751 139.614  0.00  0.00    +0.000 A 
ATOM     10  C   UNL     1     114.133 126.468 139.404  0.00  0.00    +0.000 A 
ATOM     11  C   UNL     1     113.008 126.944 140.249  0.00  0.00    +0.000 A 
ATOM     12  C   UNL     1     113.849 126.802 140.143  0.00  0.00    +0.000 A 
ENDROOT
BRANCH   4  13
ATOM     13  C   UNL     1     111.984 125.731 136.963  0.00  0.00    +0.000 A 
ATOM     14  C   UNL     1     111.823 124.941 136.781  0.00  0.00    +0.000 A 
ATOM     15  C   UNL     1     111.616 126.335 136.539  0.00  0.00    +0.000 A 
ATOM     16  C   UNL     1     111.294 124.758 136.176  0.00  0.00    +0.000 A 
ATOM     17  C   UNL     1     111.086 126.151 135.933  0.00  0.00    +0.000 A 
ATOM     18  C   UNL     1     110.926 125.363 135.752  0.00  0.00    +0.000 A 
BRANCH  14  19
ATOM     19  O   UNL     1     112.191 124.338 137.204  0.00  0.00    +0.000 OA
ATOM     20  C   UNL     1     112.054 123.550 137.003  0.00  0.00    +0.000 C 
ENDBRANCH  14  19
BRANCH  18  21
ATOM     21  O   UNL     1     110.396 125.179 135.146  0.00  0.00    +0.000 OA
ATOM     22  C   UNL     1     109.921 125.769 134.819  0.00  0.00    +0.000 C 
ENDBRANCH  18  21
ENDBRANCH   4  13
TORSDOF 3
ENDMDL
MODEL 7
REMARK VINA RESULT:      -7.3     11.777     12.774
REMARK  Name = 13886678
REMARK  3 active torsions:
REMARK  status: ('A' for Active; 'I' for Inactive)
REMARK    1  A    between atoms: O_3  and  C_12
REMARK    2  A    between atoms: O_4  and  C_18
REMARK    3  A    between atoms: C_6  and  C_8
REMARK                            x       y       z     vdW  Elec       q    Type
REMARK                         _______ _______ _______ _____ _____    ______ ____
ROOT
ATOM      1  O   UNL     1     110.827 125.169 135.286  0.00  0.00    +0.000 OA
ATOM      2  O   UNL     1     110.421 126.666 137.214  0.00  0.00    +0.000 OA
ATOM      3  O   UNL     1     112.254 123.304 137.007  0.00  0.00    +0.000 OA
ATOM      4  C   UNL     1     110.274 126.372 135.823  0.00  0.00    +0.000 C 
ATOM      5  C   UNL     1     110.409 125.874 135.181  0.00  0.00    +0.000 C 
ATOM      6  C   UNL     1     110.556 126.167 136.571  0.00  0.00    +0.000 C 
ATOM      7  C   UNL     1     110.973 125.463 136.676  0.00  0.00    +0.000 A 
ATOM      8  C   UNL     1     111.108 124.965 136.033  0.00  0.00    +0.000 A 
ATOM      9  C   UNL     1     111.262 125.261 137.460  0.00  0.00    +0.000 A 
ATOM     10  C   UNL     1     111.541 124.228 136.129  0.00  0.00    +0.000 A 
ATOM     11  C   UNL     1     111.696 124.529 137.576  0.00  0.00    +0.000 A 
ATOM     12  C   UNL     1     111.837 124.009 136.905  0.00  0.00    +0.000 A 
ENDROOT
BRANCH   4  13
ATOM     13  C   UNL     1     109.858 127.077 135.719  0.00  0.00    +0.000 A 
ATOM     14  C   UNL     1     110.207 127.706 135.315  0.00  0.00    +0.000 A 
ATOM     15  C   UNL     1     109.092 127.152 136.018  0.00  0.00    +0.000 A 
ATOM     16  C   UNL     1     109.790 128.410 135.211  0.00  0.00    +0.000 A 
ATOM     17  C   UNL     1     108.675 127.857 135.914  0.00  0.00    +0.000 A 
ATOM     18  C   UNL     1     109.025 128.486 135.510  0.00  0.00    +0.000 A 
BRANCH  14  19
ATOM     19  O   UNL     1     110.971 127.631 135.016  0.00  0.00    +0.000 OA
ATOM     20  C   UNL     1     111.323 128.263 134.620  0.00  0.00    +0.000 C 
ENDBRANCH  14  19
BRANCH  18  21
ATOM     21  O   UNL     1     108.608 129.191 135.405  0.00  0.00    +0.000 OA
ATOM     22  C   UNL     1     108.493 129.700 136.044  0.00  0.00    +0.000 C 
ENDBRANCH  18  21
ENDBRANCH   4  13
TORSDOF 3
ENDMDL
MODEL 8
REMARK VINA RESULT:      -7.3      2.187      3.212
REMARK  Name = 13886678
REMARK  3 active torsions:
REMARK  status: ('A' for Active; 'I' for Inactive)
REMARK    1  A    between atoms: O_3  and  C_12
REMARK    2  A    between atoms: O_4  and  C_18
REMARK    3  A    between atoms: C_6  and  C_8
REMARK                            x       y       z     vdW  Elec       q    Type
REMARK                         _______ _______ _______ _____ _____    ______ ____
ROOT
ATOM      1  O   UNL     1     105.726 124.778 147.583  0.00  0.00    +0.000 OA
ATOM      2  O   UNL     1     107.476 125.957 146.289  0.00  0.00    +0.000 OA
ATOM      3  O   UNL     1     107.687 124.052 149.610  0.00  0.00    +0.000 OA
ATOM      4  C   UNL     1     106.116 125.544 146.441  0.00  0.00    +0.000 C 
ATOM      5  C   UNL     1     105.533 125.151 146.872  0.00  0.00    +0.000 C 
ATOM      6  C   UNL     1     106.893 125.564 146.721  0.00  0.00    +0.000 C 
ATOM      7  C   UNL     1     107.085 125.192 147.431  0.00  0.00    +0.000 A 
ATOM      8  C   UNL     1     106.502 124.799 147.862  0.00  0.00    +0.000 A 
ATOM      9  C   UNL     1     107.898 125.221 147.711  0.00  0.00    +0.000 A 
ATOM     10  C   UNL     1     106.691 124.407 148.604  0.00  0.00    +0.000 A 
ATOM     11  C   UNL     1     108.105 124.835 148.450  0.00  0.00    +0.000 A 
ATOM     12  C   UNL     1     107.497 124.425 148.900  0.00  0.00    +0.000 A 
ENDROOT
BRANCH   4  13
ATOM     13  C   UNL     1     105.923 125.916 145.731  0.00  0.00    +0.000 A 
ATOM     14  C   UNL     1     105.762 125.464 145.059  0.00  0.00    +0.000 A 
ATOM     15  C   UNL     1     105.893 126.739 145.692  0.00  0.00    +0.000 A 
ATOM     16  C   UNL     1     105.569 125.836 144.349  0.00  0.00    +0.000 A 
ATOM     17  C   UNL     1     105.700 127.112 144.980  0.00  0.00    +0.000 A 
ATOM     18  C   UNL     1     105.539 126.660 144.309  0.00  0.00    +0.000 A 
BRANCH  14  19
ATOM     19  O   UNL     1     105.792 124.641 145.099  0.00  0.00    +0.000 OA
ATOM     20  C   UNL     1     105.566 124.188 144.448  0.00  0.00    +0.000 C 
ENDBRANCH  14  19
BRANCH  18  21
ATOM     21  O   UNL     1     105.346 127.032 143.598  0.00  0.00    +0.000 OA
ATOM     22  C   UNL     1     105.548 127.823 143.479  0.00  0.00    +0.000 C 
ENDBRANCH  18  21
ENDBRANCH   4  13
TORSDOF 3
ENDMDL
MODEL 9
REMARK VINA RESULT:      -7.3      8.353      9.421
REMARK  Name = 13886678
REMARK  3 active torsions:
REMARK  status: ('A' for Active; 'I' for Inactive)
REMARK    1  A    between atoms: O_3  and  C_12
REMARK    2  A    between atoms: O_4  and  C_18
REMARK    3  A    between atoms: C_6  and  C_8
REMARK                            x       y       z     vdW  Elec       q    Type
REMARK                         _______ _______ _______ _____ _____    ______ ____
ROOT
ATOM      1  O   UNL     1     101.225 131.559 141.825  0.00  0.00    +0.000 OA
ATOM      2  O   UNL     1     103.648 131.679 141.335  0.00  0.00    +0.000 OA
ATOM      3  O   UNL     1     101.034 134.462 141.690  0.00  0.00    +0.000 OA
ATOM      4  C   UNL     1     102.478 130.906 141.614  0.00  0.00    +0.000 C 
ATOM      5  C   UNL     1     101.672 130.866 141.777  0.00  0.00    +0.000 C 
ATOM      6  C   UNL     1     102.840 131.639 141.498  0.00  0.00    +0.000 C 
ATOM      7  C   UNL     1     102.394 132.331 141.546  0.00  0.00    +0.000 A 
ATOM      8  C   UNL     1     101.587 132.291 141.709  0.00  0.00    +0.000 A 
ATOM      9  C   UNL     1     102.783 133.088 141.423  0.00  0.00    +0.000 A 
ATOM     10  C   UNL     1     101.111 133.005 141.762  0.00  0.00    +0.000 A 
ATOM     11  C   UNL     1     102.324 133.813 141.472  0.00  0.00    +0.000 A 
ATOM     12  C   UNL     1     101.482 133.771 141.642  0.00  0.00    +0.000 A 
ENDROOT
BRANCH   4  13
ATOM     13  C   UNL     1     102.925 130.214 141.566  0.00  0.00    +0.000 A 
ATOM     14  C   UNL     1     102.841 129.714 140.914  0.00  0.00    +0.000 A 
ATOM     15  C   UNL     1     103.454 130.022 142.169  0.00  0.00    +0.000 A 
ATOM     16  C   UNL     1     103.288 129.022 140.867  0.00  0.00    +0.000 A 
ATOM     17  C   UNL     1     103.901 129.329 142.120  0.00  0.00    +0.000 A 
ATOM     18  C   UNL     1     103.817 128.830 141.469  0.00  0.00    +0.000 A 
BRANCH  14  19
ATOM     19  O   UNL     1     102.312 129.906 140.313  0.00  0.00    +0.000 OA
ATOM     20  C   UNL     1     102.206 129.392 139.677  0.00  0.00    +0.000 C 
ENDBRANCH  14  19
BRANCH  18  21
ATOM     21  O   UNL     1     104.264 128.137 141.421  0.00  0.00    +0.000 OA
ATOM     22  C   UNL     1     104.930 128.041 141.898  0.00  0.00    +0.000 C 
ENDBRANCH  18  21
ENDBRANCH   4  13
TORSDOF 3
ENDMDL
MODEL 10
REMARK VINA RESULT:      -7.2     12.629     14.133
REMARK  Name = 13886678
REMARK  3 active torsions:
REMARK  status: ('A' for Active; 'I' for Inactive)
REMARK    1  A    between atoms: O_3  and  C_12
REMARK    2  A    between atoms: O_4  and  C_18
REMARK    3  A    between atoms: C_6  and  C_8
REMARK                            x       y       z     vdW  Elec       q    Type
REMARK                         _______ _______ _______ _____ _____    ______ ____
ROOT
ATOM      1  O   UNL     1     111.860 126.177 136.459  0.00  0.00    +0.000 OA
ATOM      2  O   UNL     1     114.299 126.557 136.635  0.00  0.00    +0.000 OA
ATOM      3  O   UNL     1     112.260 123.314 136.810  0.00  0.00    +0.000 OA
ATOM      4  C   UNL     1     112.976 127.069 136.461  0.00  0.00    +0.000 C 
ATOM      5  C   UNL     1     112.164 126.943 136.402  0.00  0.00    +0.000 C 
ATOM      6  C   UNL     1     113.486 126.430 136.576  0.00  0.00    +0.000 C 
ATOM      7  C   UNL     1     113.182 125.666 136.633  0.00  0.00    +0.000 A 
ATOM      8  C   UNL     1     112.370 125.539 136.575  0.00  0.00    +0.000 A 
ATOM      9  C   UNL     1     113.724 125.009 136.754  0.00  0.00    +0.000 A 
ATOM     10  C   UNL     1     112.041 124.747 136.633  0.00  0.00    +0.000 A 
ATOM     11  C   UNL     1     113.414 124.210 136.814  0.00  0.00    +0.000 A 
ATOM     12  C   UNL     1     112.566 124.078 136.753  0.00  0.00    +0.000 A 
ENDROOT
BRANCH   4  13
ATOM     13  C   UNL     1     113.280 127.834 136.403  0.00  0.00    +0.000 A 
ATOM     14  C   UNL     1     113.150 128.376 137.013  0.00  0.00    +0.000 A 
ATOM     15  C   UNL     1     113.714 128.057 135.738  0.00  0.00    +0.000 A 
ATOM     16  C   UNL     1     113.454 129.140 136.956  0.00  0.00    +0.000 A 
ATOM     17  C   UNL     1     114.018 128.823 135.682  0.00  0.00    +0.000 A 
ATOM     18  C   UNL     1     113.888 129.364 136.291  0.00  0.00    +0.000 A 
BRANCH  14  19
ATOM     19  O   UNL     1     112.717 128.152 137.677  0.00  0.00    +0.000 OA
ATOM     20  C   UNL     1     112.588 128.693 138.287  0.00  0.00    +0.000 C 
ENDBRANCH  14  19
BRANCH  18  21
ATOM     21  O   UNL     1     114.192 130.129 136.234  0.00  0.00    +0.000 OA
ATOM     22  C   UNL     1     114.878 130.269 135.798  0.00  0.00    +0.000 C 
ENDBRANCH  18  21
ENDBRANCH   4  13
TORSDOF 3
ENDMDL
