MODEL 1
REMARK VINA RESULT:     -10.3      0.000      0.000
REMARK  Name = 21672568
REMARK  3 active torsions:
REMARK  status: ('A' for Active; 'I' for Inactive)
REMARK    1  A    between atoms: O_2  and  C_16
REMARK    2  A    between atoms: O_2  and  C_18
REMARK    3  A    between atoms: C_19  and  C_23
REMARK                            x       y       z     vdW  Elec       q    Type
REMARK                         _______ _______ _______ _____ _____    ______ ____
ROOT
ATOM      1  O   UNL     1     105.654 124.420 147.732  0.00  0.00    +0.000 OA
ATOM      2  O   UNL     1     107.055 125.661 146.113  0.00  0.00    +0.000 OA
ATOM      3  O   UNL     1     108.178 125.632 147.018  0.00  0.00    +0.000 OA
ATOM      4  O   UNL     1     107.877 124.322 149.611  0.00  0.00    +0.000 OA
ATOM      5  C   UNL     1     105.806 125.062 146.464  0.00  0.00    +0.000 A 
ATOM      6  C   UNL     1     105.339 124.648 147.004  0.00  0.00    +0.000 A 
ATOM      7  C   UNL     1     106.588 125.247 146.653  0.00  0.00    +0.000 A 
ATOM      8  C   UNL     1     106.903 125.019 147.380  0.00  0.00    +0.000 A 
ATOM      9  C   UNL     1     106.436 124.605 147.920  0.00  0.00    +0.000 A 
ATOM     10  C   UNL     1     107.719 125.218 147.564  0.00  0.00    +0.000 A 
ATOM     11  C   UNL     1     106.752 124.362 148.681  0.00  0.00    +0.000 A 
ATOM     12  C   UNL     1     108.052 124.983 148.320  0.00  0.00    +0.000 A 
ATOM     13  C   UNL     1     107.566 124.552 148.882  0.00  0.00    +0.000 A 
ENDROOT
BRANCH   6  17
ATOM     14  O   UNL     1     103.451 123.048 145.576  0.00  0.00    +0.000 OA
ATOM     15  O   UNL     1     102.539 125.132 147.306  0.00  0.00    +0.000 OA
ATOM     16  O   UNL     1     102.213 123.904 146.254  0.00  0.00    +0.000 OA
ATOM     17  C   UNL     1     104.558 124.463 146.817  0.00  0.00    +0.000 A 
ATOM     18  C   UNL     1     103.939 124.891 147.156  0.00  0.00    +0.000 A 
ATOM     19  C   UNL     1     104.395 123.848 146.290  0.00  0.00    +0.000 A 
ATOM     20  C   UNL     1     103.613 123.662 146.103  0.00  0.00    +0.000 A 
ATOM     21  C   UNL     1     103.158 124.704 146.968  0.00  0.00    +0.000 A 
ATOM     22  C   UNL     1     102.995 124.090 146.442  0.00  0.00    +0.000 A 
ENDBRANCH   6  17
BRANCH   5  23
ATOM     23  O   UNL     1     105.492 125.290 145.737  0.00  0.00    +0.000 OA
BRANCH  23  31
ATOM     24  O   UNL     1     105.396 126.667 146.107  0.00  0.00    +0.000 OA
ATOM     25  O   UNL     1     105.598 127.321 143.729  0.00  0.00    +0.000 OA
ATOM     26  O   UNL     1     105.627 125.726 144.152  0.00  0.00    +0.000 OA
ATOM     27  O   UNL     1     105.435 128.480 144.893  0.00  0.00    +0.000 OA
ATOM     28  C   UNL     1     105.531 127.103 144.522  0.00  0.00    +0.000 C 
ATOM     29  C   UNL     1     105.545 126.306 144.733  0.00  0.00    +0.000 C 
ATOM     30  C   UNL     1     105.449 127.682 145.104  0.00  0.00    +0.000 C 
ATOM     31  C   UNL     1     105.477 126.087 145.526  0.00  0.00    +0.000 C 
ATOM     32  C   UNL     1     105.381 127.465 145.896  0.00  0.00    +0.000 C 
ENDBRANCH  23  31
ENDBRANCH   5  23
TORSDOF 3
ENDMDL
MODEL 2
REMARK VINA RESULT:      -9.7      1.554      4.140
REMARK  Name = 21672568
REMARK  3 active torsions:
REMARK  status: ('A' for Active; 'I' for Inactive)
REMARK    1  A    between atoms: O_2  and  C_16
REMARK    2  A    between atoms: O_2  and  C_18
REMARK    3  A    between atoms: C_19  and  C_23
REMARK                            x       y       z     vdW  Elec       q    Type
REMARK                         _______ _______ _______ _____ _____    ______ ____
ROOT
ATOM      1  O   UNL     1     103.730 125.743 147.300  0.00  0.00    +0.000 OA
ATOM      2  O   UNL     1     105.646 124.407 146.480  0.00  0.00    +0.000 OA
ATOM      3  O   UNL     1     104.769 123.324 146.108  0.00  0.00    +0.000 OA
ATOM      4  O   UNL     1     101.898 123.598 146.574  0.00  0.00    +0.000 OA
ATOM      5  C   UNL     1     105.134 125.604 147.070  0.00  0.00    +0.000 A 
ATOM      6  C   UNL     1     104.496 126.049 147.343  0.00  0.00    +0.000 A 
ATOM      7  C   UNL     1     105.007 124.852 146.753  0.00  0.00    +0.000 A 
ATOM      8  C   UNL     1     104.243 124.546 146.710  0.00  0.00    +0.000 A 
ATOM      9  C   UNL     1     103.604 124.991 146.984  0.00  0.00    +0.000 A 
ATOM     10  C   UNL     1     104.124 123.762 146.379  0.00  0.00    +0.000 A 
ATOM     11  C   UNL     1     102.803 124.683 146.944  0.00  0.00    +0.000 A 
ATOM     12  C   UNL     1     103.330 123.438 146.331  0.00  0.00    +0.000 A 
ATOM     13  C   UNL     1     102.665 123.901 146.616  0.00  0.00    +0.000 A 
ENDROOT
BRANCH   6  17
ATOM     14  O   UNL     1     104.720 127.772 149.612  0.00  0.00    +0.000 OA
ATOM     15  O   UNL     1     105.025 128.833 146.976  0.00  0.00    +0.000 OA
ATOM     16  O   UNL     1     104.998 129.054 148.611  0.00  0.00    +0.000 OA
ATOM     17  C   UNL     1     104.621 126.800 147.659  0.00  0.00    +0.000 A 
ATOM     18  C   UNL     1     104.760 127.441 147.159  0.00  0.00    +0.000 A 
ATOM     19  C   UNL     1     104.608 126.910 148.477  0.00  0.00    +0.000 A 
ATOM     20  C   UNL     1     104.734 127.662 148.794  0.00  0.00    +0.000 A 
ATOM     21  C   UNL     1     104.886 128.192 147.476  0.00  0.00    +0.000 A 
ATOM     22  C   UNL     1     104.873 128.303 148.293  0.00  0.00    +0.000 A 
ENDBRANCH   6  17
BRANCH   5  23
ATOM     23  O   UNL     1     105.898 125.910 147.113  0.00  0.00    +0.000 OA
BRANCH  23  31
ATOM     24  O   UNL     1     106.253 125.072 148.215  0.00  0.00    +0.000 OA
ATOM     25  O   UNL     1     108.640 125.257 147.588  0.00  0.00    +0.000 OA
ATOM     26  O   UNL     1     107.490 126.032 146.695  0.00  0.00    +0.000 OA
ATOM     27  O   UNL     1     108.198 124.358 148.900  0.00  0.00    +0.000 OA
ATOM     28  C   UNL     1     107.845 125.195 147.797  0.00  0.00    +0.000 C 
ATOM     29  C   UNL     1     107.270 125.583 147.350  0.00  0.00    +0.000 C 
ATOM     30  C   UNL     1     107.623 124.746 148.453  0.00  0.00    +0.000 C 
ATOM     31  C   UNL     1     106.473 125.522 147.559  0.00  0.00    +0.000 C 
ATOM     32  C   UNL     1     106.828 124.685 148.662  0.00  0.00    +0.000 C 
ENDBRANCH  23  31
ENDBRANCH   5  23
TORSDOF 3
ENDMDL
MODEL 3
REMARK VINA RESULT:      -9.7      1.627      4.196
REMARK  Name = 21672568
REMARK  3 active torsions:
REMARK  status: ('A' for Active; 'I' for Inactive)
REMARK    1  A    between atoms: O_2  and  C_16
REMARK    2  A    between atoms: O_2  and  C_18
REMARK    3  A    between atoms: C_19  and  C_23
REMARK                            x       y       z     vdW  Elec       q    Type
REMARK                         _______ _______ _______ _____ _____    ______ ____
ROOT
ATOM      1  O   UNL     1     104.774 124.237 146.936  0.00  0.00    +0.000 OA
ATOM      2  O   UNL     1     103.246 125.720 148.197  0.00  0.00    +0.000 OA
ATOM      3  O   UNL     1     102.094 125.064 147.629  0.00  0.00    +0.000 OA
ATOM      4  O   UNL     1     102.496 122.866 145.748  0.00  0.00    +0.000 OA
ATOM      5  C   UNL     1     104.572 125.313 147.856  0.00  0.00    +0.000 A 
ATOM      6  C   UNL     1     105.082 124.818 147.436  0.00  0.00    +0.000 A 
ATOM      7  C   UNL     1     103.755 125.226 147.777  0.00  0.00    +0.000 A 
ATOM      8  C   UNL     1     103.448 124.646 147.278  0.00  0.00    +0.000 A 
ATOM      9  C   UNL     1     103.958 124.151 146.858  0.00  0.00    +0.000 A 
ATOM     10  C   UNL     1     102.595 124.565 147.204  0.00  0.00    +0.000 A 
ATOM     11  C   UNL     1     103.650 123.543 146.335  0.00  0.00    +0.000 A 
ATOM     12  C   UNL     1     102.270 123.963 146.686  0.00  0.00    +0.000 A 
ATOM     13  C   UNL     1     102.800 123.448 146.248  0.00  0.00    +0.000 A 
ENDROOT
BRANCH   6  17
ATOM     14  O   UNL     1     107.480 124.408 148.936  0.00  0.00    +0.000 OA
ATOM     15  O   UNL     1     107.584 125.741 146.410  0.00  0.00    +0.000 OA
ATOM     16  O   UNL     1     108.349 125.160 147.752  0.00  0.00    +0.000 OA
ATOM     17  C   UNL     1     105.898 124.904 147.514  0.00  0.00    +0.000 A 
ATOM     18  C   UNL     1     106.333 125.280 146.922  0.00  0.00    +0.000 A 
ATOM     19  C   UNL     1     106.281 124.613 148.186  0.00  0.00    +0.000 A 
ATOM     20  C   UNL     1     107.097 124.699 148.264  0.00  0.00    +0.000 A 
ATOM     21  C   UNL     1     107.150 125.365 147.002  0.00  0.00    +0.000 A 
ATOM     22  C   UNL     1     107.532 125.075 147.672  0.00  0.00    +0.000 A 
ENDBRANCH   6  17
BRANCH   5  23
ATOM     23  O   UNL     1     104.879 125.893 148.355  0.00  0.00    +0.000 OA
BRANCH  23  31
ATOM     24  O   UNL     1     104.552 126.949 147.450  0.00  0.00    +0.000 OA
ATOM     25  O   UNL     1     104.510 128.552 149.335  0.00  0.00    +0.000 OA
ATOM     26  O   UNL     1     104.851 126.961 149.612  0.00  0.00    +0.000 OA
ATOM     27  O   UNL     1     104.196 129.074 147.801  0.00  0.00    +0.000 OA
ATOM     28  C   UNL     1     104.524 128.018 148.707  0.00  0.00    +0.000 C 
ATOM     29  C   UNL     1     104.694 127.223 148.845  0.00  0.00    +0.000 C 
ATOM     30  C   UNL     1     104.367 128.278 147.940  0.00  0.00    +0.000 C 
ATOM     31  C   UNL     1     104.708 126.688 148.216  0.00  0.00    +0.000 C 
ATOM     32  C   UNL     1     104.381 127.745 147.312  0.00  0.00    +0.000 C 
ENDBRANCH  23  31
ENDBRANCH   5  23
TORSDOF 3
ENDMDL
MODEL 4
REMARK VINA RESULT:      -9.6     10.175     12.263
REMARK  Name = 21672568
REMARK  3 active torsions:
REMARK  status: ('A' for Active; 'I' for Inactive)
REMARK    1  A    between atoms: O_2  and  C_16
REMARK    2  A    between atoms: O_2  and  C_18
REMARK    3  A    between atoms: C_19  and  C_23
REMARK                            x       y       z     vdW  Elec       q    Type
REMARK                         _______ _______ _______ _____ _____    ______ ____
ROOT
ATOM      1  O   UNL     1     113.479 127.184 136.363  0.00  0.00    +0.000 OA
ATOM      2  O   UNL     1     112.403 128.331 138.274  0.00  0.00    +0.000 OA
ATOM      3  O   UNL     1     112.770 129.621 137.744  0.00  0.00    +0.000 OA
ATOM      4  O   UNL     1     114.255 129.753 135.232  0.00  0.00    +0.000 OA
ATOM      5  C   UNL     1     112.752 127.124 137.593  0.00  0.00    +0.000 A 
ATOM      6  C   UNL     1     113.111 126.742 136.956  0.00  0.00    +0.000 A 
ATOM      7  C   UNL     1     112.762 127.948 137.637  0.00  0.00    +0.000 A 
ATOM      8  C   UNL     1     113.129 128.390 137.045  0.00  0.00    +0.000 A 
ATOM      9  C   UNL     1     113.488 128.007 136.408  0.00  0.00    +0.000 A 
ATOM     10  C   UNL     1     113.131 129.247 137.103  0.00  0.00    +0.000 A 
ATOM     11  C   UNL     1     113.874 128.456 135.785  0.00  0.00    +0.000 A 
ATOM     12  C   UNL     1     113.513 129.712 136.490  0.00  0.00    +0.000 A 
ATOM     13  C   UNL     1     113.886 129.314 135.826  0.00  0.00    +0.000 A 
ENDROOT
BRANCH   6  17
ATOM     14  O   UNL     1     111.737 124.312 136.342  0.00  0.00    +0.000 OA
ATOM     15  O   UNL     1     114.430 124.230 137.296  0.00  0.00    +0.000 OA
ATOM     16  O   UNL     1     113.074 123.447 136.773  0.00  0.00    +0.000 OA
ATOM     17  C   UNL     1     113.103 125.919 136.910  0.00  0.00    +0.000 A 
ATOM     18  C   UNL     1     113.771 125.486 137.126  0.00  0.00    +0.000 A 
ATOM     19  C   UNL     1     112.424 125.527 136.649  0.00  0.00    +0.000 A 
ATOM     20  C   UNL     1     112.416 124.704 136.603  0.00  0.00    +0.000 A 
ATOM     21  C   UNL     1     113.761 124.662 137.080  0.00  0.00    +0.000 A 
ATOM     22  C   UNL     1     113.084 124.271 136.819  0.00  0.00    +0.000 A 
ENDBRANCH   6  17
BRANCH   5  23
ATOM     23  O   UNL     1     112.385 126.683 138.184  0.00  0.00    +0.000 OA
BRANCH  23  31
ATOM     24  O   UNL     1     113.428 126.954 139.123  0.00  0.00    +0.000 OA
ATOM     25  O   UNL     1     111.870 126.489 140.989  0.00  0.00    +0.000 OA
ATOM     26  O   UNL     1     111.346 126.373 139.428  0.00  0.00    +0.000 OA
ATOM     27  O   UNL     1     113.433 126.914 141.305  0.00  0.00    +0.000 OA
ATOM     28  C   UNL     1     112.389 126.644 140.367  0.00  0.00    +0.000 C 
ATOM     29  C   UNL     1     112.127 126.586 139.587  0.00  0.00    +0.000 C 
ATOM     30  C   UNL     1     113.171 126.856 140.525  0.00  0.00    +0.000 C 
ATOM     31  C   UNL     1     112.647 126.741 138.964  0.00  0.00    +0.000 C 
ATOM     32  C   UNL     1     113.690 127.011 139.903  0.00  0.00    +0.000 C 
ENDBRANCH  23  31
ENDBRANCH   5  23
TORSDOF 3
ENDMDL
MODEL 5
REMARK VINA RESULT:      -9.4     10.384     12.553
REMARK  Name = 21672568
REMARK  3 active torsions:
REMARK  status: ('A' for Active; 'I' for Inactive)
REMARK    1  A    between atoms: O_2  and  C_16
REMARK    2  A    between atoms: O_2  and  C_18
REMARK    3  A    between atoms: C_19  and  C_23
REMARK                            x       y       z     vdW  Elec       q    Type
REMARK                         _______ _______ _______ _____ _____    ______ ____
ROOT
ATOM      1  O   UNL     1     113.544 126.758 136.786  0.00  0.00    +0.000 OA
ATOM      2  O   UNL     1     111.594 125.431 136.036  0.00  0.00    +0.000 OA
ATOM      3  O   UNL     1     112.263 124.200 136.381  0.00  0.00    +0.000 OA
ATOM      4  O   UNL     1     114.956 124.315 137.506  0.00  0.00    +0.000 OA
ATOM      5  C   UNL     1     112.226 126.697 136.236  0.00  0.00    +0.000 A 
ATOM      6  C   UNL     1     112.876 127.139 136.486  0.00  0.00    +0.000 A 
ATOM      7  C   UNL     1     112.244 125.873 136.286  0.00  0.00    +0.000 A 
ATOM      8  C   UNL     1     112.911 125.493 136.586  0.00  0.00    +0.000 A 
ATOM      9  C   UNL     1     113.561 125.935 136.836  0.00  0.00    +0.000 A 
ATOM     10  C   UNL     1     112.918 124.634 136.633  0.00  0.00    +0.000 A 
ATOM     11  C   UNL     1     114.262 125.550 137.151  0.00  0.00    +0.000 A 
ATOM     12  C   UNL     1     113.610 124.232 136.945  0.00  0.00    +0.000 A 
ATOM     13  C   UNL     1     114.286 124.693 137.205  0.00  0.00    +0.000 A 
ENDROOT
BRANCH   6  17
ATOM     14  O   UNL     1     113.082 129.528 134.931  0.00  0.00    +0.000 OA
ATOM     15  O   UNL     1     112.567 129.690 137.738  0.00  0.00    +0.000 OA
ATOM     16  O   UNL     1     112.808 130.432 136.284  0.00  0.00    +0.000 OA
ATOM     17  C   UNL     1     112.859 127.962 136.436  0.00  0.00    +0.000 A 
ATOM     18  C   UNL     1     112.721 128.414 137.113  0.00  0.00    +0.000 A 
ATOM     19  C   UNL     1     112.979 128.334 135.709  0.00  0.00    +0.000 A 
ATOM     20  C   UNL     1     112.962 129.157 135.659  0.00  0.00    +0.000 A 
ATOM     21  C   UNL     1     112.705 129.238 137.061  0.00  0.00    +0.000 A 
ATOM     22  C   UNL     1     112.825 129.609 136.335  0.00  0.00    +0.000 A 
ENDBRANCH   6  17
BRANCH   5  23
ATOM     23  O   UNL     1     111.559 127.077 135.936  0.00  0.00    +0.000 OA
BRANCH  23  31
ATOM     24  O   UNL     1     110.787 126.819 137.110  0.00  0.00    +0.000 OA
ATOM     25  O   UNL     1     108.707 126.980 135.779  0.00  0.00    +0.000 OA
ATOM     26  O   UNL     1     110.172 127.185 135.048  0.00  0.00    +0.000 OA
ATOM     27  O   UNL     1     108.629 126.667 137.398  0.00  0.00    +0.000 OA
ATOM     28  C   UNL     1     109.400 126.926 136.223  0.00  0.00    +0.000 C 
ATOM     29  C   UNL     1     110.132 127.029 135.857  0.00  0.00    +0.000 C 
ATOM     30  C   UNL     1     109.361 126.770 137.032  0.00  0.00    +0.000 C 
ATOM     31  C   UNL     1     110.826 126.975 136.301  0.00  0.00    +0.000 C 
ATOM     32  C   UNL     1     110.054 126.716 137.476  0.00  0.00    +0.000 C 
ENDBRANCH  23  31
ENDBRANCH   5  23
TORSDOF 3
ENDMDL
MODEL 6
REMARK VINA RESULT:      -9.4      0.815      3.306
REMARK  Name = 21672568
REMARK  3 active torsions:
REMARK  status: ('A' for Active; 'I' for Inactive)
REMARK    1  A    between atoms: O_2  and  C_16
REMARK    2  A    between atoms: O_2  and  C_18
REMARK    3  A    between atoms: C_19  and  C_23
REMARK                            x       y       z     vdW  Elec       q    Type
REMARK                         _______ _______ _______ _____ _____    ______ ____
ROOT
ATOM      1  O   UNL     1     106.736 125.337 146.939  0.00  0.00    +0.000 OA
ATOM      2  O   UNL     1     104.757 124.726 148.295  0.00  0.00    +0.000 OA
ATOM      3  O   UNL     1     105.599 124.304 149.387  0.00  0.00    +0.000 OA
ATOM      4  O   UNL     1     108.499 124.506 149.102  0.00  0.00    +0.000 OA
ATOM      5  C   UNL     1     105.317 125.237 147.084  0.00  0.00    +0.000 A 
ATOM      6  C   UNL     1     105.976 125.440 146.632  0.00  0.00    +0.000 A 
ATOM      7  C   UNL     1     105.417 124.929 147.843  0.00  0.00    +0.000 A 
ATOM      8  C   UNL     1     106.174 124.826 148.150  0.00  0.00    +0.000 A 
ATOM      9  C   UNL     1     106.834 125.030 147.699  0.00  0.00    +0.000 A 
ATOM     10  C   UNL     1     106.265 124.505 148.943  0.00  0.00    +0.000 A 
ATOM     11  C   UNL     1     107.629 124.927 148.008  0.00  0.00    +0.000 A 
ATOM     12  C   UNL     1     107.052 124.396 149.268  0.00  0.00    +0.000 A 
ATOM     13  C   UNL     1     107.739 124.608 148.798  0.00  0.00    +0.000 A 
ENDROOT
BRANCH   6  17
ATOM     14  O   UNL     1     106.078 125.105 143.795  0.00  0.00    +0.000 OA
ATOM     15  O   UNL     1     105.285 127.614 144.910  0.00  0.00    +0.000 OA
ATOM     16  O   UNL     1     105.583 126.666 143.593  0.00  0.00    +0.000 OA
ATOM     17  C   UNL     1     105.878 125.747 145.873  0.00  0.00    +0.000 A 
ATOM     18  C   UNL     1     105.631 126.528 145.771  0.00  0.00    +0.000 A 
ATOM     19  C   UNL     1     106.027 125.273 145.214  0.00  0.00    +0.000 A 
ATOM     20  C   UNL     1     105.929 125.580 144.454  0.00  0.00    +0.000 A 
ATOM     21  C   UNL     1     105.533 126.834 145.011  0.00  0.00    +0.000 A 
ATOM     22  C   UNL     1     105.681 126.360 144.353  0.00  0.00    +0.000 A 
ENDBRANCH   6  17
BRANCH   5  23
ATOM     23  O   UNL     1     104.559 125.340 146.776  0.00  0.00    +0.000 OA
BRANCH  23  31
ATOM     24  O   UNL     1     104.365 123.952 146.494  0.00  0.00    +0.000 OA
ATOM     25  O   UNL     1     101.929 124.222 146.834  0.00  0.00    +0.000 OA
ATOM     26  O   UNL     1     102.934 125.520 147.002  0.00  0.00    +0.000 OA
ATOM     27  O   UNL     1     102.548 122.745 146.438  0.00  0.00    +0.000 OA
ATOM     28  C   UNL     1     102.741 124.132 146.720  0.00  0.00    +0.000 C 
ATOM     29  C   UNL     1     103.243 124.781 146.805  0.00  0.00    +0.000 C 
ATOM     30  C   UNL     1     103.051 123.394 146.523  0.00  0.00    +0.000 C 
ATOM     31  C   UNL     1     104.056 124.691 146.692  0.00  0.00    +0.000 C 
ATOM     32  C   UNL     1     103.863 123.303 146.410  0.00  0.00    +0.000 C 
ENDBRANCH  23  31
ENDBRANCH   5  23
TORSDOF 3
ENDMDL
MODEL 7
REMARK VINA RESULT:      -9.3      9.216     11.193
REMARK  Name = 21672568
REMARK  3 active torsions:
REMARK  status: ('A' for Active; 'I' for Inactive)
REMARK    1  A    between atoms: O_2  and  C_16
REMARK    2  A    between atoms: O_2  and  C_18
REMARK    3  A    between atoms: C_19  and  C_23
REMARK                            x       y       z     vdW  Elec       q    Type
REMARK                         _______ _______ _______ _____ _____    ______ ____
ROOT
ATOM      1  O   UNL     1     113.777 126.241 138.201  0.00  0.00    +0.000 OA
ATOM      2  O   UNL     1     111.735 124.902 137.801  0.00  0.00    +0.000 OA
ATOM      3  O   UNL     1     112.373 124.198 136.716  0.00  0.00    +0.000 OA
ATOM      4  O   UNL     1     115.132 124.864 136.022  0.00  0.00    +0.000 OA
ATOM      5  C   UNL     1     112.427 125.912 138.537  0.00  0.00    +0.000 A 
ATOM      6  C   UNL     1     113.108 126.359 138.670  0.00  0.00    +0.000 A 
ATOM      7  C   UNL     1     112.415 125.348 137.935  0.00  0.00    +0.000 A 
ATOM      8  C   UNL     1     113.083 125.231 137.466  0.00  0.00    +0.000 A 
ATOM      9  C   UNL     1     113.764 125.677 137.599  0.00  0.00    +0.000 A 
ATOM     10  C   UNL     1     113.059 124.640 136.842  0.00  0.00    +0.000 A 
ATOM     11  C   UNL     1     114.467 125.564 137.118  0.00  0.00    +0.000 A 
ATOM     12  C   UNL     1     113.752 124.514 136.351  0.00  0.00    +0.000 A 
ATOM     13  C   UNL     1     114.461 124.979 136.489  0.00  0.00    +0.000 A 
ENDROOT
BRANCH   6  17
ATOM     14  O   UNL     1     113.316 127.012 141.445  0.00  0.00    +0.000 OA
ATOM     15  O   UNL     1     112.976 129.087 139.510  0.00  0.00    +0.000 OA
ATOM     16  O   UNL     1     113.159 128.613 141.080  0.00  0.00    +0.000 OA
ATOM     17  C   UNL     1     113.120 126.923 139.272  0.00  0.00    +0.000 A 
ATOM     18  C   UNL     1     113.041 127.723 139.089  0.00  0.00    +0.000 A 
ATOM     19  C   UNL     1     113.212 126.685 140.057  0.00  0.00    +0.000 A 
ATOM     20  C   UNL     1     113.225 127.249 140.659  0.00  0.00    +0.000 A 
ATOM     21  C   UNL     1     113.054 128.287 139.692  0.00  0.00    +0.000 A 
ATOM     22  C   UNL     1     113.146 128.050 140.477  0.00  0.00    +0.000 A 
ENDBRANCH   6  17
BRANCH   5  23
ATOM     23  O   UNL     1     111.759 126.030 139.005  0.00  0.00    +0.000 OA
BRANCH  23  31
ATOM     24  O   UNL     1     111.046 126.687 137.955  0.00  0.00    +0.000 OA
ATOM     25  O   UNL     1     108.901 126.060 139.017  0.00  0.00    +0.000 OA
ATOM     26  O   UNL     1     110.328 125.611 139.713  0.00  0.00    +0.000 OA
ATOM     27  O   UNL     1     108.905 126.927 137.613  0.00  0.00    +0.000 OA
ATOM     28  C   UNL     1     109.616 126.269 138.663  0.00  0.00    +0.000 C 
ATOM     29  C   UNL     1     110.329 126.045 139.011  0.00  0.00    +0.000 C 
ATOM     30  C   UNL     1     109.618 126.702 137.961  0.00  0.00    +0.000 C 
ATOM     31  C   UNL     1     111.045 126.254 138.657  0.00  0.00    +0.000 C 
ATOM     32  C   UNL     1     110.333 126.911 137.607  0.00  0.00    +0.000 C 
ENDBRANCH  23  31
ENDBRANCH   5  23
TORSDOF 3
ENDMDL
MODEL 8
REMARK VINA RESULT:      -9.2     11.684     13.219
REMARK  Name = 21672568
REMARK  3 active torsions:
REMARK  status: ('A' for Active; 'I' for Inactive)
REMARK    1  A    between atoms: O_2  and  C_16
REMARK    2  A    between atoms: O_2  and  C_18
REMARK    3  A    between atoms: C_19  and  C_23
REMARK                            x       y       z     vdW  Elec       q    Type
REMARK                         _______ _______ _______ _____ _____    ______ ____
ROOT
ATOM      1  O   UNL     1     111.897 126.107 136.198  0.00  0.00    +0.000 OA
ATOM      2  O   UNL     1     111.700 128.556 135.901  0.00  0.00    +0.000 OA
ATOM      3  O   UNL     1     110.505 128.394 135.111  0.00  0.00    +0.000 OA
ATOM      4  O   UNL     1     109.488 125.702 134.612  0.00  0.00    +0.000 OA
ATOM      5  C   UNL     1     112.390 127.427 136.439  0.00  0.00    +0.000 A 
ATOM      6  C   UNL     1     112.456 126.611 136.538  0.00  0.00    +0.000 A 
ATOM      7  C   UNL     1     111.766 127.740 136.000  0.00  0.00    +0.000 A 
ATOM      8  C   UNL     1     111.208 127.238 135.660  0.00  0.00    +0.000 A 
ATOM      9  C   UNL     1     111.273 126.421 135.759  0.00  0.00    +0.000 A 
ATOM     10  C   UNL     1     110.562 127.577 135.205  0.00  0.00    +0.000 A 
ATOM     11  C   UNL     1     110.697 125.887 135.409  0.00  0.00    +0.000 A 
ATOM     12  C   UNL     1     109.977 127.058 134.848  0.00  0.00    +0.000 A 
ATOM     13  C   UNL     1     110.045 126.208 134.951  0.00  0.00    +0.000 A 
ENDROOT
BRANCH   6  17
ATOM     14  O   UNL     1     114.957 125.232 136.646  0.00  0.00    +0.000 OA
ATOM     15  O   UNL     1     113.700 126.103 139.061  0.00  0.00    +0.000 OA
ATOM     16  O   UNL     1     114.952 125.353 138.292  0.00  0.00    +0.000 OA
ATOM     17  C   UNL     1     113.079 126.296 136.977  0.00  0.00    +0.000 A 
ATOM     18  C   UNL     1     113.077 126.357 137.800  0.00  0.00    +0.000 A 
ATOM     19  C   UNL     1     113.706 125.921 136.592  0.00  0.00    +0.000 A 
ATOM     20  C   UNL     1     114.330 125.607 137.031  0.00  0.00    +0.000 A 
ATOM     21  C   UNL     1     113.702 126.042 138.238  0.00  0.00    +0.000 A 
ATOM     22  C   UNL     1     114.328 125.667 137.854  0.00  0.00    +0.000 A 
ENDBRANCH   6  17
BRANCH   5  23
ATOM     23  O   UNL     1     112.949 127.929 136.779  0.00  0.00    +0.000 OA
BRANCH  23  31
ATOM     24  O   UNL     1     113.569 128.227 135.527  0.00  0.00    +0.000 OA
ATOM     25  O   UNL     1     114.349 130.395 136.427  0.00  0.00    +0.000 OA
ATOM     26  O   UNL     1     113.469 129.375 137.380  0.00  0.00    +0.000 OA
ATOM     27  O   UNL     1     114.709 129.969 134.874  0.00  0.00    +0.000 OA
ATOM     28  C   UNL     1     114.089 129.673 136.127  0.00  0.00    +0.000 C 
ATOM     29  C   UNL     1     113.649 129.163 136.603  0.00  0.00    +0.000 C 
ATOM     30  C   UNL     1     114.269 129.459 135.351  0.00  0.00    +0.000 C 
ATOM     31  C   UNL     1     113.389 128.439 136.303  0.00  0.00    +0.000 C 
ATOM     32  C   UNL     1     114.009 128.737 135.050  0.00  0.00    +0.000 C 
ENDBRANCH  23  31
ENDBRANCH   5  23
TORSDOF 3
ENDMDL
MODEL 9
REMARK VINA RESULT:      -9.2     11.192     12.753
REMARK  Name = 21672568
REMARK  3 active torsions:
REMARK  status: ('A' for Active; 'I' for Inactive)
REMARK    1  A    between atoms: O_2  and  C_16
REMARK    2  A    between atoms: O_2  and  C_18
REMARK    3  A    between atoms: C_19  and  C_23
REMARK                            x       y       z     vdW  Elec       q    Type
REMARK                         _______ _______ _______ _____ _____    ______ ____
ROOT
ATOM      1  O   UNL     1     111.898 129.419 135.852  0.00  0.00    +0.000 OA
ATOM      2  O   UNL     1     112.455 131.117 137.563  0.00  0.00    +0.000 OA
ATOM      3  O   UNL     1     113.857 131.033 137.233  0.00  0.00    +0.000 OA
ATOM      4  O   UNL     1     114.711 129.195 135.129  0.00  0.00    +0.000 OA
ATOM      5  C   UNL     1     111.485 130.320 136.882  0.00  0.00    +0.000 A 
ATOM      6  C   UNL     1     111.300 129.753 136.311  0.00  0.00    +0.000 A 
ATOM      7  C   UNL     1     112.270 130.551 136.993  0.00  0.00    +0.000 A 
ATOM      8  C   UNL     1     112.868 130.217 136.534  0.00  0.00    +0.000 A 
ATOM      9  C   UNL     1     112.682 129.651 135.964  0.00  0.00    +0.000 A 
ATOM     10  C   UNL     1     113.681 130.466 136.660  0.00  0.00    +0.000 A 
ATOM     11  C   UNL     1     113.297 129.295 135.479  0.00  0.00    +0.000 A 
ATOM     12  C   UNL     1     114.308 130.122 136.185  0.00  0.00    +0.000 A 
ATOM     13  C   UNL     1     114.115 129.532 135.591  0.00  0.00    +0.000 A 
ENDROOT
BRANCH   6  17
ATOM     14  O   UNL     1     108.871 129.884 134.810  0.00  0.00    +0.000 OA
ATOM     15  O   UNL     1     109.026 128.232 137.137  0.00  0.00    +0.000 OA
ATOM     16  O   UNL     1     108.165 128.826 135.861  0.00  0.00    +0.000 OA
ATOM     17  C   UNL     1     110.516 129.521 136.199  0.00  0.00    +0.000 A 
ATOM     18  C   UNL     1     110.163 128.992 136.725  0.00  0.00    +0.000 A 
ATOM     19  C   UNL     1     110.085 129.819 135.561  0.00  0.00    +0.000 A 
ATOM     20  C   UNL     1     109.302 129.587 135.449  0.00  0.00    +0.000 A 
ATOM     21  C   UNL     1     109.379 128.761 136.612  0.00  0.00    +0.000 A 
ATOM     22  C   UNL     1     108.949 129.058 135.974  0.00  0.00    +0.000 A 
ENDBRANCH   6  17
BRANCH   5  23
ATOM     23  O   UNL     1     110.887 130.654 137.340  0.00  0.00    +0.000 OA
BRANCH  23  31
ATOM     24  O   UNL     1     110.932 131.900 136.642  0.00  0.00    +0.000 OA
ATOM     25  O   UNL     1     110.046 133.054 138.643  0.00  0.00    +0.000 OA
ATOM     26  O   UNL     1     110.296 131.424 138.675  0.00  0.00    +0.000 OA
ATOM     27  O   UNL     1     110.387 133.915 137.277  0.00  0.00    +0.000 OA
ATOM     28  C   UNL     1     110.341 132.670 137.976  0.00  0.00    +0.000 C 
ATOM     29  C   UNL     1     110.466 131.854 137.992  0.00  0.00    +0.000 C 
ATOM     30  C   UNL     1     110.512 133.100 137.293  0.00  0.00    +0.000 C 
ATOM     31  C   UNL     1     110.762 131.469 137.325  0.00  0.00    +0.000 C 
ATOM     32  C   UNL     1     110.807 132.715 136.626  0.00  0.00    +0.000 C 
ENDBRANCH  23  31
ENDBRANCH   5  23
TORSDOF 3
ENDMDL
MODEL 10
REMARK VINA RESULT:      -9.2     11.159     12.812
REMARK  Name = 21672568
REMARK  3 active torsions:
REMARK  status: ('A' for Active; 'I' for Inactive)
REMARK    1  A    between atoms: O_2  and  C_16
REMARK    2  A    between atoms: O_2  and  C_18
REMARK    3  A    between atoms: C_19  and  C_23
REMARK                            x       y       z     vdW  Elec       q    Type
REMARK                         _______ _______ _______ _____ _____    ______ ____
ROOT
ATOM      1  O   UNL     1     113.051 126.592 136.620  0.00  0.00    +0.000 OA
ATOM      2  O   UNL     1     110.873 126.398 135.460  0.00  0.00    +0.000 OA
ATOM      3  O   UNL     1     110.855 124.971 135.671  0.00  0.00    +0.000 OA
ATOM      4  O   UNL     1     113.083 123.717 137.083  0.00  0.00    +0.000 OA
ATOM      5  C   UNL     1     111.958 127.201 135.928  0.00  0.00    +0.000 A 
ATOM      6  C   UNL     1     112.683 127.266 136.315  0.00  0.00    +0.000 A 
ATOM      7  C   UNL     1     111.599 126.462 135.846  0.00  0.00    +0.000 A 
ATOM      8  C   UNL     1     111.965 125.790 136.151  0.00  0.00    +0.000 A 
ATOM      9  C   UNL     1     112.691 125.854 136.537  0.00  0.00    +0.000 A 
ATOM     10  C   UNL     1     111.581 125.026 136.059  0.00  0.00    +0.000 A 
ATOM     11  C   UNL     1     113.083 125.160 136.859  0.00  0.00    +0.000 A 
ATOM     12  C   UNL     1     111.958 124.321 136.374  0.00  0.00    +0.000 A 
ATOM     13  C   UNL     1     112.714 124.389 136.777  0.00  0.00    +0.000 A 
ENDROOT
BRANCH   6  17
ATOM     14  O   UNL     1     113.320 129.542 137.921  0.00  0.00    +0.000 OA
ATOM     15  O   UNL     1     114.204 129.417 135.206  0.00  0.00    +0.000 OA
ATOM     16  O   UNL     1     114.122 130.218 136.646  0.00  0.00    +0.000 OA
ATOM     17  C   UNL     1     113.043 128.004 136.397  0.00  0.00    +0.000 A 
ATOM     18  C   UNL     1     113.444 128.341 135.759  0.00  0.00    +0.000 A 
ATOM     19  C   UNL     1     113.002 128.404 137.118  0.00  0.00    +0.000 A 
ATOM     20  C   UNL     1     113.362 129.142 137.200  0.00  0.00    +0.000 A 
ATOM     21  C   UNL     1     113.803 129.079 135.843  0.00  0.00    +0.000 A 
ATOM     22  C   UNL     1     113.762 129.480 136.563  0.00  0.00    +0.000 A 
ENDBRANCH   6  17
BRANCH   5  23
ATOM     23  O   UNL     1     111.591 127.874 135.624  0.00  0.00    +0.000 OA
BRANCH  23  31
ATOM     24  O   UNL     1     110.593 127.892 136.646  0.00  0.00    +0.000 OA
ATOM     25  O   UNL     1     109.061 129.107 135.129  0.00  0.00    +0.000 OA
ATOM     26  O   UNL     1     110.570 128.684 134.612  0.00  0.00    +0.000 OA
ATOM     27  O   UNL     1     108.573 128.719 136.657  0.00  0.00    +0.000 OA
ATOM     28  C   UNL     1     109.571 128.702 135.634  0.00  0.00    +0.000 C 
ATOM     29  C   UNL     1     110.326 128.491 135.376  0.00  0.00    +0.000 C 
ATOM     30  C   UNL     1     109.328 128.508 136.399  0.00  0.00    +0.000 C 
ATOM     31  C   UNL     1     110.837 128.085 135.882  0.00  0.00    +0.000 C 
ATOM     32  C   UNL     1     109.838 128.103 136.904  0.00  0.00    +0.000 C 
ENDBRANCH  23  31
ENDBRANCH   5  23
TORSDOF 3
ENDMDL
